data_I
_chemical_name_common  '/data/user2/wty/HOF/MOFDiff/mofdiff/data/test/10-sof-7'
_cell_length_a  7.65676
_cell_length_b 30.14260
_cell_length_c 34.51580
_cell_angle_alpha 90.00000
_cell_angle_beta  93.90000
_cell_angle_gamma 90.00000
_space_group_name_H-M_alt      'P 1'


loop_
_space_group_symop_operation_xyz
  'x, y, z' 

loop_
_atom_site_label
_atom_site_fract_x
_atom_site_fract_y
_atom_site_fract_z
_atom_site_type_symbol
C0      0.8117  0.15072  0.79056     C
H1      0.8413   0.1774   0.7792     H
N2      0.7685  0.11624  0.76758     N
N3     0.49769  0.26382  0.98726     N
C4      0.8138  0.14809  0.83038     C
H5      0.8418   0.1728   0.8456     H
C6      0.7735  0.10793  0.84755     C
N7     0.71224  0.14151  0.90731     N
N8      0.9908  0.00468  0.87783     N
C9       0.728   0.0721  0.82367     C
H10     0.6993   0.0448   0.8341     H
C11     0.7265  0.07799  0.78382     C
H12     0.6947   0.0542   0.7677     H
N13    0.81428  0.12237  0.04453     N
C14     0.5886  0.26324  0.95551     C
H15     0.6041   0.2897   0.9423     H
C16     0.6604  0.22486  0.94146     C
H17     0.7231   0.2255   0.9193     H
C18    0.63713  0.18515  0.96111     C
C19    0.53985  0.18566  0.99363     C
H20     0.5198   0.1596   0.0071     H
C21     0.4732  0.22567  0.00572     C
H22     0.4087    0.226   0.0276     H
C23    0.77586  0.10566  0.89055     C
C24    0.84488  0.06956   0.9125     C
C25    0.85136  0.07152  0.95329     C
C26    0.78466  0.10978  0.97016     C
C27    0.71291  0.14383  0.94595     C
C28     0.9256  0.03304   0.8934     C
C29    0.79869   0.1159  0.01172     C
C30     0.9284  0.03485  0.97739     C
C31    0.88006  0.99113  0.96886     C
H32        0.8   0.9852    0.948     H
C33    0.04917  0.04348   0.0087     C
H34     0.0822   0.0725   0.0145     H
C35     0.1883  0.84928  0.20944     C
H36     0.1587   0.8226   0.2208     H
N37     0.2315  0.88376  0.23242     N
N38    0.50231  0.73618  0.01274     N
C39     0.1862  0.85191  0.16962     C
H40     0.1582   0.8272   0.1544     H
C41     0.2265  0.89207  0.15245     C
N42    0.28776  0.85849  0.09269     N
N43     0.0092  0.99532  0.12217     N
C44      0.272   0.9279  0.17633     C
H45     0.3007   0.9552   0.1659     H
C46     0.2735  0.92201  0.21618     C
H47     0.3053   0.9458   0.2323     H
N48    0.18572  0.87763  0.95547     N
C49     0.4114  0.73676  0.04449     C
H50     0.3959   0.7103   0.0577     H
C51     0.3396  0.77514  0.05854     C
H52     0.2769   0.7745   0.0807     H
C53    0.36287  0.81485  0.03889     C
C54    0.46015  0.81434  0.00637     C
H55     0.4802   0.8404   0.9929     H
C56     0.5268  0.77433  0.99428     C
H57     0.5913    0.774   0.9724     H
C58    0.22414  0.89434  0.10945     C
C59    0.15512  0.93044   0.0875     C
C60    0.14864  0.92848  0.04671     C
C61    0.21534  0.89022  0.02984     C
C62    0.28709  0.85617  0.05405     C
C63     0.0744  0.96696   0.1066     C
C64    0.20131   0.8841  0.98828     C
C65     0.0716  0.96515  0.02261     C
C66    0.11994  0.00887  0.03114     C
H67        0.2   0.0148    0.052     H
C68    0.95083  0.95652   0.9913     C
H69     0.9178   0.9275   0.9855     H
O70     0.2457  0.12487  0.80733     O
H71     0.2395   0.1207   0.7838     H
O72    0.31958  0.05314  0.80938     O
O73    0.12493  0.20649  0.92724     O
O74    0.13015  0.16583  0.98145     O
H75     0.0884   0.1884   0.9903     H
O76    0.48629  0.05559  0.01399     O
N77      0.434  0.02365  0.95379     N
H78     0.4453   0.9991   0.9416     H
C79     0.2356  0.13041  0.88596     C
H80     0.1933    0.154   0.8707     H
C81     0.2982  0.09255  0.86875     C
C82    0.36575  0.05745  0.89137     C
H83     0.4073   0.0322   0.8796     H
C84    0.37077  0.06035   0.9317     C
C85    0.30547   0.0981  0.94904     C
H86     0.3079   0.1002    0.976     H
C87    0.23674   0.1327  0.92611     C
C88     0.2894  0.08784  0.82534     C
C89    0.15872  0.17223  0.94482     C
C90    0.47844  0.02346  0.99231     C
O91     0.7543  0.87513  0.19267     O
H92     0.7605   0.8793   0.2162     H
O93    0.68042  0.94686  0.19062     O
O94    0.87507  0.79351  0.07276     O
O95    0.86985  0.83417  0.01855     O
H96     0.9116   0.8116   0.0097     H
O97    0.51371  0.94441  0.98601     O
N98      0.566  0.97635  0.04621     N
H99     0.5547   0.0009   0.0584     H
C100    0.7644  0.86959  0.11404     C
H101    0.8067    0.846   0.1293     H
C102    0.7018  0.90745  0.13125     C
C103   0.63425  0.94255  0.10863     C
H104    0.5927   0.9678   0.1204     H
C105   0.62923  0.93965   0.0683     C
C106   0.69453   0.9019  0.05096     C
H107    0.6921   0.8998    0.024     H
C108   0.76326   0.8673  0.07389     C
C109    0.7106  0.91216  0.17466     C
C110   0.84128  0.82777  0.05518     C
C111   0.52156  0.97654  0.00769     C
loop_
_geom_bond_atom_site_label_1
_geom_bond_atom_site_label_2
_geom_bond_distance
_geom_bond_site_symmetry_2
_ccdc_geom_bond_type
H78   O97    2.28742       .     S
O97   H78    2.28742       .     S
H99   O76    2.28743       .     S
O76   H99    2.28743       .     S
C0    H1     0.92948       .     S
H1    C0     0.92948       .     S
C0    N2     1.33530       .     S
N2    C0     1.33530       .     S
C0    C4     1.37571       .     S
C4    C0     1.37571       .     S
N2    C11    1.33096       .     S
C11   N2     1.33096       .     S
N3    C14    1.33774       .     S
C14   N3     1.33774       .     S
N3    C21    1.33407   1_556     S
C21   N3     1.33407   1_554     S
C4    H5     0.92810       .     S
H5    C4     0.92810       .     S
C4    C6     1.39165       .     S
C6    C4     1.39165       .     S
C6    C9     1.38856       .     S
C9    C6     1.38856       .     S
C6    C23    1.48464       .     S
C23   C6     1.48464       .     S
N7    C23    1.33341       .     S
C23   N7     1.33341       .     S
N7    C27    1.33518       .     S
C27   N7     1.33518       .     S
N8    C28    1.14249       .     S
C28   N8     1.14249       .     S
C9    H10    0.93049       .     S
H10   C9     0.93049       .     S
C9    C11    1.38614       .     S
C11   C9     1.38614       .     S
C11   H12    0.92987       .     S
H12   C11    0.92987       .     S
N13   C29    1.14733       .     S
C29   N13    1.14733       .     S
C14   H15    0.93030       .     S
H15   C14    0.93030       .     S
C14   C16    1.38276       .     S
C16   C14    1.38276       .     S
C16   H17    0.93050       .     S
H17   C16    0.93050       .     S
C16   C18    1.39316       .     S
C18   C16    1.39316       .     S
C18   C19    1.38877       .     S
C19   C18    1.38877       .     S
C18   C27    1.48426       .     S
C27   C18    1.48426       .     S
C19   H20    0.93084   1_556     S
H20   C19    0.93084   1_554     S
C19   C21    1.38491   1_556     S
C21   C19    1.38491   1_554     S
C21   H22    0.93009       .     S
H22   C21    0.93009       .     S
C23   C24    1.40815       .     S
C24   C23    1.40815       .     S
C24   C25    1.40664       .     S
C25   C24    1.40664       .     S
C24   C28    1.44354       .     S
C28   C24    1.44354       .     S
C25   C26    1.40368       .     S
C26   C25    1.40368       .     S
C25   C30    1.48152       .     S
C30   C25    1.48152       .     S
C26   C27    1.41104       .     S
C27   C26    1.41104       .     S
C26   C29    1.44303   1_556     S
C29   C26    1.44303   1_554     S
C30   C31    1.39483   1_545     S
C31   C30    1.39483   1_565     S
C30   C33    1.39811   1_656     S
C33   C30    1.39811   1_454     S
C31   H32    0.93063       .     S
H32   C31    0.93063       .     S
C31   C68    1.38736       .     S
C68   C31    1.38736       .     S
C33   H34    0.92861       .     S
H34   C33    0.92861       .     S
C33   C66    1.38736       .     S
C66   C33    1.38736       .     S
C35   H36    0.92948       .     S
H36   C35    0.92948       .     S
C35   N37    1.33530       .     S
N37   C35    1.33530       .     S
C35   C39    1.37570       .     S
C39   C35    1.37570       .     S
N37   C46    1.33096       .     S
C46   N37    1.33096       .     S
N38   C49    1.33774       .     S
C49   N38    1.33774       .     S
N38   C56    1.33407   1_554     S
C56   N38    1.33407   1_556     S
C39   H40    0.92810       .     S
H40   C39    0.92810       .     S
C39   C41    1.39165       .     S
C41   C39    1.39165       .     S
C41   C44    1.38856       .     S
C44   C41    1.38856       .     S
C41   C58    1.48464       .     S
C58   C41    1.48464       .     S
N42   C58    1.33341       .     S
C58   N42    1.33341       .     S
N42   C62    1.33518       .     S
C62   N42    1.33518       .     S
N43   C63    1.14249       .     S
C63   N43    1.14249       .     S
C44   H45    0.93049       .     S
H45   C44    0.93049       .     S
C44   C46    1.38614       .     S
C46   C44    1.38614       .     S
C46   H47    0.92987       .     S
H47   C46    0.92987       .     S
N48   C64    1.14733       .     S
C64   N48    1.14733       .     S
C49   H50    0.93030       .     S
H50   C49    0.93030       .     S
C49   C51    1.38276       .     S
C51   C49    1.38276       .     S
C51   H52    0.93050       .     S
H52   C51    0.93050       .     S
C51   C53    1.39316       .     S
C53   C51    1.39316       .     S
C53   C54    1.38877       .     S
C54   C53    1.38877       .     S
C53   C62    1.48426       .     S
C62   C53    1.48426       .     S
C54   H55    0.93084   1_554     S
H55   C54    0.93084   1_556     S
C54   C56    1.38491   1_554     S
C56   C54    1.38491   1_556     S
C56   H57    0.93009       .     S
H57   C56    0.93009       .     S
C58   C59    1.40815       .     S
C59   C58    1.40815       .     S
C59   C60    1.40664       .     S
C60   C59    1.40664       .     S
C59   C63    1.44354       .     S
C63   C59    1.44354       .     S
C60   C61    1.40368       .     S
C61   C60    1.40368       .     S
C60   C65    1.48152       .     S
C65   C60    1.48152       .     S
C61   C62    1.41104       .     S
C62   C61    1.41104       .     S
C61   C64    1.44303   1_554     S
C64   C61    1.44303   1_556     S
C65   C66    1.39483   1_565     S
C66   C65    1.39483   1_545     S
C65   C68    1.39811   1_454     S
C68   C65    1.39811   1_656     S
C66   H67    0.93063       .     S
H67   C66    0.93063       .     S
C68   H69    0.92861       .     S
H69   C68    0.92861       .     S
O70   H71    0.82000       .     S
H71   O70    0.82000       .     S
O70   C88    1.30994       .     S
C88   O70    1.30994       .     S
O72   C88    1.21169       .     S
C88   O72    1.21169       .     S
O73   C89    1.21664       .     S
C89   O73    1.21664       .     S
O74   H75    0.81952       .     S
H75   O74    0.81952       .     S
O74   C89    1.31194       .     S
C89   O74    1.31194       .     S
O76   C90    1.22287   1_554     S
C90   O76    1.22287   1_556     S
N77   H78    0.85853   1_545     S
H78   N77    0.85853   1_565     S
N77   C84    1.41041       .     S
C84   N77    1.41041       .     S
N77   C90    1.34980       .     S
C90   N77    1.34980       .     S
C79   H80    0.92991       .     S
H80   C79    0.92991       .     S
C79   C81    1.38696       .     S
C81   C79    1.38696       .     S
C79   C87    1.38696       .     S
C87   C79    1.38696       .     S
C81   C82    1.39338       .     S
C82   C81    1.39338       .     S
C81   C88    1.50198       .     S
C88   C81    1.50198       .     S
C82   H83    0.92904       .     S
H83   C82    0.92904       .     S
C82   C84    1.39268       .     S
C84   C82    1.39268       .     S
C84   C85    1.39416       .     S
C85   C84    1.39416       .     S
C85   H86    0.93162       .     S
H86   C85    0.93162       .     S
C85   C87    1.39082       .     S
C87   C85    1.39082       .     S
C87   C89    1.49872       .     S
C89   C87    1.49872       .     S
C90   C111   1.53857   1_546     S
C111  C90    1.53857   1_564     S
O91   H92    0.82000       .     S
H92   O91    0.82000       .     S
O91   C109   1.30994       .     S
C109  O91    1.30994       .     S
O93   C109   1.21169       .     S
C109  O93    1.21169       .     S
O94   C110   1.21664       .     S
C110  O94    1.21664       .     S
O95   H96    0.81952       .     S
H96   O95    0.81952       .     S
O95   C110   1.31194       .     S
C110  O95    1.31194       .     S
O97   C111   1.22287   1_556     S
C111  O97    1.22287   1_554     S
N98   H99    0.85853   1_565     S
H99   N98    0.85853   1_545     S
N98   C105   1.41041       .     S
C105  N98    1.41041       .     S
N98   C111   1.34980       .     S
C111  N98    1.34980       .     S
C100  H101   0.92991       .     S
H101  C100   0.92991       .     S
C100  C102   1.38696       .     S
C102  C100   1.38696       .     S
C100  C108   1.38696       .     S
C108  C100   1.38696       .     S
C102  C103   1.39339       .     S
C103  C102   1.39339       .     S
C102  C109   1.50198       .     S
C109  C102   1.50198       .     S
C103  H104   0.92904       .     S
H104  C103   0.92904       .     S
C103  C105   1.39268       .     S
C105  C103   1.39268       .     S
C105  C106   1.39416       .     S
C106  C105   1.39416       .     S
C106  H107   0.93162       .     S
H107  C106   0.93162       .     S
C106  C108   1.39082       .     S
C108  C106   1.39082       .     S
C108  C110   1.49871       .     S
C110  C108   1.49871       .     S
O97   H78    2.28742       .     S
H78   O97    2.28742       .     S
O76   H99    2.28743       .     S
H99   O76    2.28743       .     S
H1    C0     0.92948       .     S
C0    H1     0.92948       .     S
N2    C0     1.33530       .     S
C0    N2     1.33530       .     S
C4    C0     1.37571       .     S
C0    C4     1.37571       .     S
C11   N2     1.33096       .     S
N2    C11    1.33096       .     S
C14   N3     1.33774       .     S
N3    C14    1.33774       .     S
C21   N3     1.33407   1_554     S
N3    C21    1.33407   1_556     S
H5    C4     0.92810       .     S
C4    H5     0.92810       .     S
C6    C4     1.39165       .     S
C4    C6     1.39165       .     S
C9    C6     1.38856       .     S
C6    C9     1.38856       .     S
C23   C6     1.48464       .     S
C6    C23    1.48464       .     S
C23   N7     1.33341       .     S
N7    C23    1.33341       .     S
C27   N7     1.33518       .     S
N7    C27    1.33518       .     S
C28   N8     1.14249       .     S
N8    C28    1.14249       .     S
H10   C9     0.93049       .     S
C9    H10    0.93049       .     S
C11   C9     1.38614       .     S
C9    C11    1.38614       .     S
H12   C11    0.92987       .     S
C11   H12    0.92987       .     S
C29   N13    1.14733       .     S
N13   C29    1.14733       .     S
H15   C14    0.93030       .     S
C14   H15    0.93030       .     S
C16   C14    1.38276       .     S
C14   C16    1.38276       .     S
H17   C16    0.93050       .     S
C16   H17    0.93050       .     S
C18   C16    1.39316       .     S
C16   C18    1.39316       .     S
C19   C18    1.38877       .     S
C18   C19    1.38877       .     S
C27   C18    1.48426       .     S
C18   C27    1.48426       .     S
H20   C19    0.93084   1_554     S
C19   H20    0.93084   1_556     S
C21   C19    1.38491   1_554     S
C19   C21    1.38491   1_556     S
H22   C21    0.93009       .     S
C21   H22    0.93009       .     S
C24   C23    1.40815       .     S
C23   C24    1.40815       .     S
C25   C24    1.40664       .     S
C24   C25    1.40664       .     S
C28   C24    1.44354       .     S
C24   C28    1.44354       .     S
C26   C25    1.40368       .     S
C25   C26    1.40368       .     S
C30   C25    1.48152       .     S
C25   C30    1.48152       .     S
C27   C26    1.41104       .     S
C26   C27    1.41104       .     S
C29   C26    1.44303   1_554     S
C26   C29    1.44303   1_556     S
C31   C30    1.39483   1_565     S
C30   C31    1.39483   1_545     S
C33   C30    1.39811   1_454     S
C30   C33    1.39811   1_656     S
H32   C31    0.93063       .     S
C31   H32    0.93063       .     S
C68   C31    1.38736       .     S
C31   C68    1.38736       .     S
H34   C33    0.92861       .     S
C33   H34    0.92861       .     S
C66   C33    1.38736       .     S
C33   C66    1.38736       .     S
H36   C35    0.92948       .     S
C35   H36    0.92948       .     S
N37   C35    1.33530       .     S
C35   N37    1.33530       .     S
C39   C35    1.37570       .     S
C35   C39    1.37570       .     S
C46   N37    1.33096       .     S
N37   C46    1.33096       .     S
C49   N38    1.33774       .     S
N38   C49    1.33774       .     S
C56   N38    1.33407   1_556     S
N38   C56    1.33407   1_554     S
H40   C39    0.92810       .     S
C39   H40    0.92810       .     S
C41   C39    1.39165       .     S
C39   C41    1.39165       .     S
C44   C41    1.38856       .     S
C41   C44    1.38856       .     S
C58   C41    1.48464       .     S
C41   C58    1.48464       .     S
C58   N42    1.33341       .     S
N42   C58    1.33341       .     S
C62   N42    1.33518       .     S
N42   C62    1.33518       .     S
C63   N43    1.14249       .     S
N43   C63    1.14249       .     S
H45   C44    0.93049       .     S
C44   H45    0.93049       .     S
C46   C44    1.38614       .     S
C44   C46    1.38614       .     S
H47   C46    0.92987       .     S
C46   H47    0.92987       .     S
C64   N48    1.14733       .     S
N48   C64    1.14733       .     S
H50   C49    0.93030       .     S
C49   H50    0.93030       .     S
C51   C49    1.38276       .     S
C49   C51    1.38276       .     S
H52   C51    0.93050       .     S
C51   H52    0.93050       .     S
C53   C51    1.39316       .     S
C51   C53    1.39316       .     S
C54   C53    1.38877       .     S
C53   C54    1.38877       .     S
C62   C53    1.48426       .     S
C53   C62    1.48426       .     S
H55   C54    0.93084   1_556     S
C54   H55    0.93084   1_554     S
C56   C54    1.38491   1_556     S
C54   C56    1.38491   1_554     S
H57   C56    0.93009       .     S
C56   H57    0.93009       .     S
C59   C58    1.40815       .     S
C58   C59    1.40815       .     S
C60   C59    1.40664       .     S
C59   C60    1.40664       .     S
C63   C59    1.44354       .     S
C59   C63    1.44354       .     S
C61   C60    1.40368       .     S
C60   C61    1.40368       .     S
C65   C60    1.48152       .     S
C60   C65    1.48152       .     S
C62   C61    1.41104       .     S
C61   C62    1.41104       .     S
C64   C61    1.44303   1_556     S
C61   C64    1.44303   1_554     S
C66   C65    1.39483   1_545     S
C65   C66    1.39483   1_565     S
C68   C65    1.39811   1_656     S
C65   C68    1.39811   1_454     S
H67   C66    0.93063       .     S
C66   H67    0.93063       .     S
H69   C68    0.92861       .     S
C68   H69    0.92861       .     S
H71   O70    0.82000       .     S
O70   H71    0.82000       .     S
C88   O70    1.30994       .     S
O70   C88    1.30994       .     S
C88   O72    1.21169       .     S
O72   C88    1.21169       .     S
C89   O73    1.21664       .     S
O73   C89    1.21664       .     S
H75   O74    0.81952       .     S
O74   H75    0.81952       .     S
C89   O74    1.31194       .     S
O74   C89    1.31194       .     S
C90   O76    1.22287   1_556     S
O76   C90    1.22287   1_554     S
H78   N77    0.85853   1_565     S
N77   H78    0.85853   1_545     S
C84   N77    1.41041       .     S
N77   C84    1.41041       .     S
C90   N77    1.34980       .     S
N77   C90    1.34980       .     S
H80   C79    0.92991       .     S
C79   H80    0.92991       .     S
C81   C79    1.38696       .     S
C79   C81    1.38696       .     S
C87   C79    1.38696       .     S
C79   C87    1.38696       .     S
C82   C81    1.39338       .     S
C81   C82    1.39338       .     S
C88   C81    1.50198       .     S
C81   C88    1.50198       .     S
H83   C82    0.92904       .     S
C82   H83    0.92904       .     S
C84   C82    1.39268       .     S
C82   C84    1.39268       .     S
C85   C84    1.39416       .     S
C84   C85    1.39416       .     S
H86   C85    0.93162       .     S
C85   H86    0.93162       .     S
C87   C85    1.39082       .     S
C85   C87    1.39082       .     S
C89   C87    1.49872       .     S
C87   C89    1.49872       .     S
C111  C90    1.53857   1_564     S
C90   C111   1.53857   1_546     S
H92   O91    0.82000       .     S
O91   H92    0.82000       .     S
C109  O91    1.30994       .     S
O91   C109   1.30994       .     S
C109  O93    1.21169       .     S
O93   C109   1.21169       .     S
C110  O94    1.21664       .     S
O94   C110   1.21664       .     S
H96   O95    0.81952       .     S
O95   H96    0.81952       .     S
C110  O95    1.31194       .     S
O95   C110   1.31194       .     S
C111  O97    1.22287   1_554     S
O97   C111   1.22287   1_556     S
H99   N98    0.85853   1_545     S
N98   H99    0.85853   1_565     S
C105  N98    1.41041       .     S
N98   C105   1.41041       .     S
C111  N98    1.34980       .     S
N98   C111   1.34980       .     S
H101  C100   0.92991       .     S
C100  H101   0.92991       .     S
C102  C100   1.38696       .     S
C100  C102   1.38696       .     S
C108  C100   1.38696       .     S
C100  C108   1.38696       .     S
C103  C102   1.39339       .     S
C102  C103   1.39339       .     S
C109  C102   1.50198       .     S
C102  C109   1.50198       .     S
H104  C103   0.92904       .     S
C103  H104   0.92904       .     S
C105  C103   1.39268       .     S
C103  C105   1.39268       .     S
C106  C105   1.39416       .     S
C105  C106   1.39416       .     S
H107  C106   0.93162       .     S
C106  H107   0.93162       .     S
C108  C106   1.39082       .     S
C106  C108   1.39082       .     S
C110  C108   1.49871       .     S
C108  C110   1.49871       .     S
