data_I
_chemical_name_common  '/data/user2/wty/HOF/MOFDiff/mofdiff/data/test/12_trispyrazole1'
_cell_length_a 19.31400
_cell_length_b 34.63900
_cell_length_c 22.04500
_cell_angle_alpha 90.00000
_cell_angle_beta  113.16400
_cell_angle_gamma 90.00000
_space_group_name_H-M_alt      'P 1'


loop_
_space_group_symop_operation_xyz
  'x, y, z' 

loop_
_atom_site_label
_atom_site_fract_x
_atom_site_fract_y
_atom_site_fract_z
_atom_site_type_symbol
C0      0.9348   0.5499   0.2193     C
H1      0.8843   0.5417   0.1959     H
C2         0.0   0.5263     0.25     C
C3         0.0   0.4828     0.25     C
C4      0.9373    0.461   0.2105     C
C5      0.9377  0.42153   0.2098     C
C6         0.0   0.3994     0.25     C
C7         0.0   0.3563     0.25     C
C8      0.9409  0.33594   0.2567     C
H9      0.9005   0.3499   0.2605     H
C10     0.9394  0.29579   0.2578     C
C11        0.0    0.276     0.25     C
H12        0.0   0.2486     0.25     H
C13     0.8777  0.27368   0.2615     C
C14     0.8046  0.28612   0.2356     C
C15     0.7448  0.26425   0.2371     C
C16      0.752  0.22906   0.2668     C
C17     0.8275  0.21763   0.2977     C
C18     0.8878  0.23898   0.2961     C
C19     0.6893   0.2046   0.2687     C
C20     0.6131   0.2155   0.2464     C
H21     0.5929   0.2398   0.2281     H
C22     0.6899   0.1657   0.2905     C
H23     0.7334   0.1499    0.309     H
N24     0.9611  0.58624   0.2309     N
H25     0.9334   0.6071   0.2166     H
N26     0.5748  0.18635   0.2552     N
H27     0.5262   0.1863    0.246     H
N28     0.6233  0.15554   0.2814     N
H29     0.6101   0.1326   0.2903     H
F30     0.8754  0.47926   0.1692     F
F31      0.874  0.40322   0.1712     F
F32     0.7856  0.31944   0.2012     F
F33     0.6739   0.2794    0.205     F
F34      0.847  0.18359   0.3335     F
F35     0.9587  0.22493   0.3313     F
C36       0.69   0.8352   0.4559     C
H37     0.7315   0.8524   0.4735     H
C38     0.6967   0.7938    0.435     C
C39     0.6181   0.7846   0.4134     C
H40     0.5976   0.7602   0.3955     H
C41     0.7564  0.76987   0.4329     C
C42     0.8296  0.78358   0.4638     C
C43     0.8895  0.76204    0.462     C
C44     0.8762  0.72678   0.4293     C
C45      0.803  0.71306   0.3984     C
C46     0.7431  0.73461   0.4002     C
C47     0.9441  0.70496   0.4244     C
C48     0.0027  0.72449   0.4162     C
H49     0.0034   0.7519   0.4161     H
C50     0.0603   0.7039   0.4082     C
C51     0.0593  0.66378   0.4084     C
H52     0.0986   0.6497   0.4029     H
C53     0.0007  0.64424   0.4166     C
C54     0.9431  0.66483   0.4246     C
H55      0.903   0.6515   0.4302     H
C56     0.1277  0.72656    0.404     C
C57     0.2014  0.71375   0.4361     C
C58     0.2607    0.736   0.4347     C
C59     0.2463    0.771   0.4013     C
C60     0.1726  0.78381   0.3692     C
C61     0.1133   0.7616   0.3705     C
C62      0.312   0.7945   0.4018     C
C63     0.3805   0.7878   0.4171     C
H64     0.3999   0.7631   0.4344     H
C65     0.3051   0.8346   0.3804     C
H66     0.2614   0.8504   0.3663     H
C67      0.002  0.59943   0.4181     C
C68     0.9374  0.57974   0.3781     C
C69     0.9365   0.5396   0.3778     C
C70     0.0002  0.51918   0.4175     C
C71     0.0647  0.53887   0.4575     C
C72     0.0656  0.57899   0.4578     C
C73      0.002   0.4748   0.4179     C
C74       0.94   0.4506    0.387     C
H75     0.8899   0.4584   0.3609     H
C76     0.0615   0.4491   0.4449     C
H77     0.1123   0.4569    0.468     H
N78      0.426   0.8133   0.4103     N
H79     0.4744   0.8113    0.419     H
N80     0.3776   0.8448   0.3852     N
N81     0.6205   0.8448    0.447     N
H82     0.6054   0.8672   0.4562     H
N83     0.5768   0.8136   0.4211     N
N84     0.9654   0.4138   0.4017     N
H85     0.9364   0.3932   0.3906     H
N86     0.0399    0.413   0.4352     N
F87     0.8459  0.81743   0.4974     F
F88     0.9592  0.77568   0.4975     F
F89     0.7866  0.67996   0.3667     F
F90     0.6748  0.72175   0.3718     F
F91     0.2183  0.68036    0.468     F
F92     0.3274  0.72139   0.4614     F
F93      0.045  0.77574   0.3364     F
F94      0.157   0.8162   0.3365     F
F95     0.8765  0.52033   0.3365     F
F96     0.8778  0.59683   0.3365     F
F97     0.1288  0.59658   0.4976     F
F98      0.129  0.52047   0.4988     F
loop_
_geom_bond_atom_site_label_1
_geom_bond_atom_site_label_2
_geom_bond_distance
_geom_bond_site_symmetry_2
_ccdc_geom_bond_type
H79   N83    1.96162       .     S
N83   H79    1.96162       .     S
C0    H1     0.94988       .     S
H1    C0     0.94988       .     S
C0    C2     1.42884   1_655     S
C2    C0     1.42884   1_455     S
C0    N24    1.34378       .     S
N24   C0     1.34378       .     S
C2    C3     1.50680       .     S
C3    C2     1.50680       .     S
C3    C4     1.40191   1_455     S
C4    C3     1.40191   1_655     S
C4    C5     1.36734       .     S
C5    C4     1.36734       .     S
C4    F30    1.34237       .     S
F30   C4     1.34237       .     S
C5    C6     1.40780   1_655     S
C6    C5     1.40780   1_455     S
C5    F31    1.34772       .     S
F31   C5     1.34772       .     S
C6    C7     1.49294       .     S
C7    C6     1.49294       .     S
C7    C8     1.39812   1_455     S
C8    C7     1.39812   1_655     S
C8    H9     0.94928       .     S
H9    C8     0.94928       .     S
C8    C10    1.39147       .     S
C10   C8     1.39147       .     S
C10   C11    1.42398   1_655     S
C11   C10    1.42398   1_455     S
C10   C13    1.44560       .     S
C13   C10    1.44560       .     S
C11   H12    0.94911       .     S
H12   C11    0.94911       .     S
C13   C14    1.36778       .     S
C14   C13    1.36778       .     S
C13   C18    1.39554       .     S
C18   C13    1.39554       .     S
C14   C15    1.39248       .     S
C15   C14    1.39248       .     S
C14   F32    1.35016       .     S
F32   C14    1.35016       .     S
C15   C16    1.36463       .     S
C16   C15    1.36463       .     S
C15   F33    1.37439       .     S
F33   C15    1.37439       .     S
C16   C17    1.40202       .     S
C17   C16    1.40202       .     S
C16   C19    1.49198       .     S
C19   C16    1.49198       .     S
C17   C18    1.39171       .     S
C18   C17    1.39171       .     S
C17   F34    1.38606       .     S
F34   C17    1.38606       .     S
C18   F35    1.37047       .     S
F35   C18    1.37047       .     S
C19   C20    1.40748       .     S
C20   C19    1.40748       .     S
C19   C22    1.42911       .     S
C22   C19    1.42911       .     S
C20   H21    0.94849       .     S
H21   C20    0.94849       .     S
C20   N26    1.31045       .     S
N26   C20    1.31045       .     S
C22   H23    0.94982       .     S
H23   C22    0.94982       .     S
C22   N28    1.27110       .     S
N28   C22    1.27110       .     S
N24   H25    0.88035       .     S
H25   N24    0.88035       .     S
N26   H27    0.87889       .     S
H27   N26    0.87889       .     S
N26   N28    1.38722       .     S
N28   N26    1.38722       .     S
N28   H29    0.87992       .     S
H29   N28    0.87992       .     S
C36   H37    0.95042       .     S
H37   C36    0.95042       .     S
C36   C38    1.52724       .     S
C38   C36    1.52724       .     S
C36   N81    1.32050       .     S
N81   C36    1.32050       .     S
C38   C39    1.43672       .     S
C39   C38    1.43672       .     S
C38   C41    1.43553       .     S
C41   C38    1.43553       .     S
C39   H40    0.95074       .     S
H40   C39    0.95074       .     S
C39   N83    1.33443       .     S
N83   C39    1.33443       .     S
C41   C42    1.38949       .     S
C42   C41    1.38949       .     S
C41   C46    1.38986       .     S
C46   C41    1.38986       .     S
C42   C43    1.39026       .     S
C43   C42    1.39026       .     S
C42   F87    1.35615       .     S
F87   C42    1.35615       .     S
C43   C44    1.38986       .     S
C44   C43    1.38986       .     S
C43   F88    1.34873       .     S
F88   C43    1.34873       .     S
C44   C45    1.38961       .     S
C45   C44    1.38961       .     S
C44   C47    1.55377       .     S
C47   C44    1.55377       .     S
C45   C46    1.39045       .     S
C46   C45    1.39045       .     S
C45   F89    1.31496       .     S
F89   C45    1.31496       .     S
C46   F90    1.29646       .     S
F90   C46    1.29646       .     S
C47   C48    1.39006   1_655     S
C48   C47    1.39006   1_455     S
C47   C54    1.39023       .     S
C54   C47    1.39023       .     S
C48   H49    0.94957       .     S
H49   C48    0.94957       .     S
C48   C50    1.38988       .     S
C50   C48    1.38988       .     S
C50   C51    1.38988       .     S
C51   C50    1.38988       .     S
C50   C56    1.55373       .     S
C56   C50    1.55373       .     S
C51   H52    0.94927       .     S
H52   C51    0.94927       .     S
C51   C53    1.39023       .     S
C53   C51    1.39023       .     S
C53   C54    1.38988   1_455     S
C54   C53    1.38988   1_655     S
C53   C67    1.55252       .     S
C67   C53    1.55252       .     S
C54   H55    0.95053       .     S
H55   C54    0.95053       .     S
C56   C57    1.38974       .     S
C57   C56    1.38974       .     S
C56   C61    1.39081       .     S
C61   C56    1.39081       .     S
C57   C58    1.39087       .     S
C58   C57    1.39087       .     S
C57   F91    1.32598       .     S
F91   C57    1.32598       .     S
C58   C59    1.38860       .     S
C59   C58    1.38860       .     S
C58   F92    1.29058       .     S
F92   C58    1.29058       .     S
C59   C60    1.38974       .     S
C60   C59    1.38974       .     S
C59   C62    1.50397       .     S
C62   C59    1.50397       .     S
C60   C61    1.38934       .     S
C61   C60    1.38934       .     S
C60   F94    1.30321       .     S
F94   C60    1.30321       .     S
C61   F93    1.32853       .     S
F93   C61    1.32853       .     S
C62   C63    1.25176       .     S
C63   C62    1.25176       .     S
C62   C65    1.45611       .     S
C65   C62    1.45611       .     S
C63   H64    0.95155       .     S
H64   C63    0.95155       .     S
C63   N78    1.29560       .     S
N78   C63    1.29560       .     S
C65   H66    0.94980       .     S
H66   C65    0.94980       .     S
C65   N80    1.40720       .     S
N80   C65    1.40720       .     S
C67   C68    1.39065   1_455     S
C68   C67    1.39065   1_655     S
C67   C72    1.38938       .     S
C72   C67    1.38938       .     S
C68   C69    1.39050       .     S
C69   C68    1.39050       .     S
C68   F96    1.29847       .     S
F96   C68    1.29847       .     S
C69   C70    1.39025   1_655     S
C70   C69    1.39025   1_455     S
C69   F95    1.33691       .     S
F95   C69    1.33691       .     S
C70   C71    1.38940       .     S
C71   C70    1.38940       .     S
C70   C73    1.53762       .     S
C73   C70    1.53762       .     S
C71   C72    1.38981       .     S
C72   C71    1.38981       .     S
C71   F98    1.37401       .     S
F98   C71    1.37401       .     S
C72   F97    1.33734       .     S
F97   C72    1.33734       .     S
C73   C74    1.39961   1_455     S
C74   C73    1.39961   1_655     S
C73   C76    1.38898       .     S
C76   C73    1.38898       .     S
C74   H75    0.94992       .     S
H75   C74    0.94992       .     S
C74   N84    1.35849       .     S
N84   C74    1.35849       .     S
C76   H77    0.94968       .     S
H77   C76    0.94968       .     S
C76   N86    1.30891       .     S
N86   C76    1.30891       .     S
N78   H79    0.87999       .     S
H79   N78    0.87999       .     S
N78   N80    1.40130       .     S
N80   N78    1.40130       .     S
N81   H82    0.88021       .     S
H82   N81    0.88021       .     S
N81   N83    1.35175       .     S
N83   N81    1.35175       .     S
N84   H85    0.88031       .     S
H85   N84    0.88031       .     S
N84   N86    1.33438   1_655     S
N86   N84    1.33438   1_455     S
N83   H79    1.96162       .     S
H79   N83    1.96162       .     S
H1    C0     0.94988       .     S
C0    H1     0.94988       .     S
C2    C0     1.42884   1_455     S
C0    C2     1.42884   1_655     S
N24   C0     1.34378       .     S
C0    N24    1.34378       .     S
C3    C2     1.50680       .     S
C2    C3     1.50680       .     S
C4    C3     1.40191   1_655     S
C3    C4     1.40191   1_455     S
C5    C4     1.36734       .     S
C4    C5     1.36734       .     S
F30   C4     1.34237       .     S
C4    F30    1.34237       .     S
C6    C5     1.40780   1_455     S
C5    C6     1.40780   1_655     S
F31   C5     1.34772       .     S
C5    F31    1.34772       .     S
C7    C6     1.49294       .     S
C6    C7     1.49294       .     S
C8    C7     1.39812   1_655     S
C7    C8     1.39812   1_455     S
H9    C8     0.94928       .     S
C8    H9     0.94928       .     S
C10   C8     1.39147       .     S
C8    C10    1.39147       .     S
C11   C10    1.42398   1_455     S
C10   C11    1.42398   1_655     S
C13   C10    1.44560       .     S
C10   C13    1.44560       .     S
H12   C11    0.94911       .     S
C11   H12    0.94911       .     S
C14   C13    1.36778       .     S
C13   C14    1.36778       .     S
C18   C13    1.39554       .     S
C13   C18    1.39554       .     S
C15   C14    1.39248       .     S
C14   C15    1.39248       .     S
F32   C14    1.35016       .     S
C14   F32    1.35016       .     S
C16   C15    1.36463       .     S
C15   C16    1.36463       .     S
F33   C15    1.37439       .     S
C15   F33    1.37439       .     S
C17   C16    1.40202       .     S
C16   C17    1.40202       .     S
C19   C16    1.49198       .     S
C16   C19    1.49198       .     S
C18   C17    1.39171       .     S
C17   C18    1.39171       .     S
F34   C17    1.38606       .     S
C17   F34    1.38606       .     S
F35   C18    1.37047       .     S
C18   F35    1.37047       .     S
C20   C19    1.40748       .     S
C19   C20    1.40748       .     S
C22   C19    1.42911       .     S
C19   C22    1.42911       .     S
H21   C20    0.94849       .     S
C20   H21    0.94849       .     S
N26   C20    1.31045       .     S
C20   N26    1.31045       .     S
H23   C22    0.94982       .     S
C22   H23    0.94982       .     S
N28   C22    1.27110       .     S
C22   N28    1.27110       .     S
H25   N24    0.88035       .     S
N24   H25    0.88035       .     S
H27   N26    0.87889       .     S
N26   H27    0.87889       .     S
N28   N26    1.38722       .     S
N26   N28    1.38722       .     S
H29   N28    0.87992       .     S
N28   H29    0.87992       .     S
H37   C36    0.95042       .     S
C36   H37    0.95042       .     S
C38   C36    1.52724       .     S
C36   C38    1.52724       .     S
N81   C36    1.32050       .     S
C36   N81    1.32050       .     S
C39   C38    1.43672       .     S
C38   C39    1.43672       .     S
C41   C38    1.43553       .     S
C38   C41    1.43553       .     S
H40   C39    0.95074       .     S
C39   H40    0.95074       .     S
N83   C39    1.33443       .     S
C39   N83    1.33443       .     S
C42   C41    1.38949       .     S
C41   C42    1.38949       .     S
C46   C41    1.38986       .     S
C41   C46    1.38986       .     S
C43   C42    1.39026       .     S
C42   C43    1.39026       .     S
F87   C42    1.35615       .     S
C42   F87    1.35615       .     S
C44   C43    1.38986       .     S
C43   C44    1.38986       .     S
F88   C43    1.34873       .     S
C43   F88    1.34873       .     S
C45   C44    1.38961       .     S
C44   C45    1.38961       .     S
C47   C44    1.55377       .     S
C44   C47    1.55377       .     S
C46   C45    1.39045       .     S
C45   C46    1.39045       .     S
F89   C45    1.31496       .     S
C45   F89    1.31496       .     S
F90   C46    1.29646       .     S
C46   F90    1.29646       .     S
C48   C47    1.39006   1_455     S
C47   C48    1.39006   1_655     S
C54   C47    1.39023       .     S
C47   C54    1.39023       .     S
H49   C48    0.94957       .     S
C48   H49    0.94957       .     S
C50   C48    1.38988       .     S
C48   C50    1.38988       .     S
C51   C50    1.38988       .     S
C50   C51    1.38988       .     S
C56   C50    1.55373       .     S
C50   C56    1.55373       .     S
H52   C51    0.94927       .     S
C51   H52    0.94927       .     S
C53   C51    1.39023       .     S
C51   C53    1.39023       .     S
C54   C53    1.38988   1_655     S
C53   C54    1.38988   1_455     S
C67   C53    1.55252       .     S
C53   C67    1.55252       .     S
H55   C54    0.95053       .     S
C54   H55    0.95053       .     S
C57   C56    1.38974       .     S
C56   C57    1.38974       .     S
C61   C56    1.39081       .     S
C56   C61    1.39081       .     S
C58   C57    1.39087       .     S
C57   C58    1.39087       .     S
F91   C57    1.32598       .     S
C57   F91    1.32598       .     S
C59   C58    1.38860       .     S
C58   C59    1.38860       .     S
F92   C58    1.29058       .     S
C58   F92    1.29058       .     S
C60   C59    1.38974       .     S
C59   C60    1.38974       .     S
C62   C59    1.50397       .     S
C59   C62    1.50397       .     S
C61   C60    1.38934       .     S
C60   C61    1.38934       .     S
F94   C60    1.30321       .     S
C60   F94    1.30321       .     S
F93   C61    1.32853       .     S
C61   F93    1.32853       .     S
C63   C62    1.25176       .     S
C62   C63    1.25176       .     S
C65   C62    1.45611       .     S
C62   C65    1.45611       .     S
H64   C63    0.95155       .     S
C63   H64    0.95155       .     S
N78   C63    1.29560       .     S
C63   N78    1.29560       .     S
H66   C65    0.94980       .     S
C65   H66    0.94980       .     S
N80   C65    1.40720       .     S
C65   N80    1.40720       .     S
C68   C67    1.39065   1_655     S
C67   C68    1.39065   1_455     S
C72   C67    1.38938       .     S
C67   C72    1.38938       .     S
C69   C68    1.39050       .     S
C68   C69    1.39050       .     S
F96   C68    1.29847       .     S
C68   F96    1.29847       .     S
C70   C69    1.39025   1_455     S
C69   C70    1.39025   1_655     S
F95   C69    1.33691       .     S
C69   F95    1.33691       .     S
C71   C70    1.38940       .     S
C70   C71    1.38940       .     S
C73   C70    1.53762       .     S
C70   C73    1.53762       .     S
C72   C71    1.38981       .     S
C71   C72    1.38981       .     S
F98   C71    1.37401       .     S
C71   F98    1.37401       .     S
F97   C72    1.33734       .     S
C72   F97    1.33734       .     S
C74   C73    1.39961   1_655     S
C73   C74    1.39961   1_455     S
C76   C73    1.38898       .     S
C73   C76    1.38898       .     S
H75   C74    0.94992       .     S
C74   H75    0.94992       .     S
N84   C74    1.35849       .     S
C74   N84    1.35849       .     S
H77   C76    0.94968       .     S
C76   H77    0.94968       .     S
N86   C76    1.30891       .     S
C76   N86    1.30891       .     S
H79   N78    0.87999       .     S
N78   H79    0.87999       .     S
N80   N78    1.40130       .     S
N78   N80    1.40130       .     S
H82   N81    0.88021       .     S
N81   H82    0.88021       .     S
N83   N81    1.35175       .     S
N81   N83    1.35175       .     S
H85   N84    0.88031       .     S
N84   H85    0.88031       .     S
N86   N84    1.33438   1_455     S
N84   N86    1.33438   1_655     S
