data_I
_chemical_name_common  '/data/user2/wty/HOF/MOFDiff/mofdiff/data/test/13-2a_ref_h'
_cell_length_a  8.38486
_cell_length_b 11.33640
_cell_length_c 16.33950
_cell_angle_alpha 90.00000
_cell_angle_beta  95.62780
_cell_angle_gamma 90.00000
_space_group_name_H-M_alt      'P 1'


loop_
_space_group_symop_operation_xyz
  'x, y, z' 

loop_
_atom_site_label
_atom_site_fract_x
_atom_site_fract_y
_atom_site_fract_z
_atom_site_type_symbol
O0     0.81994  0.61266  0.49574     O
O1     0.58556  0.68515   0.4402     O
C2     0.52734  0.94359  0.29154     C
C3     0.55497  0.04946   0.3324     C
C4     0.52806  0.15745  0.29252     C
C5       0.561  0.26889  0.33982     C
C6     0.70816  0.28428  0.38611     C
C7     0.74777  0.39028  0.42505     C
C8      0.6393   0.4838  0.41846     C
C9     0.48864  0.46706  0.37588     C
C10    0.44933  0.36098  0.33748     C
C11    0.68812  0.59928  0.45501     C
H12    0.54566  0.87112  0.32012     H
H13    0.59324  0.04867  0.38909     H
H14      0.619   0.7606   0.4658     H
H15    0.78265  0.22093  0.39103     H
H16    0.84876  0.39925  0.45624     H
H17    0.41228   0.5292  0.37325     H
H18    0.34576  0.35042  0.30928     H
O19    0.18006  0.61266  0.00426     O
O20    0.41444  0.68515   0.0598     O
C21    0.47266  0.94359  0.20846     C
C22    0.44503  0.04946   0.1676     C
C23    0.47194  0.15745  0.20748     C
C24      0.439  0.26889  0.16018     C
C25    0.29184  0.28428  0.11389     C
C26    0.25223  0.39028  0.07495     C
C27     0.3607   0.4838  0.08154     C
C28    0.51136  0.46706  0.12412     C
C29    0.55067  0.36098  0.16252     C
C30    0.31188  0.59928  0.04499     C
H31    0.45434  0.87112  0.17988     H
H32    0.40676  0.04867  0.11091     H
H33      0.381   0.7606   0.0342     H
H34    0.21735  0.22093  0.10897     H
H35    0.15124  0.39925  0.04376     H
H36    0.58772   0.5292  0.12675     H
H37    0.65424  0.35042  0.19072     H
loop_
_geom_bond_atom_site_label_1
_geom_bond_atom_site_label_2
_geom_bond_distance
_geom_bond_site_symmetry_2
_ccdc_geom_bond_type
O0    C11    1.24230       .     S
C11   O0     1.24230       .     S
O1    C11    1.30571       .     S
C11   O1     1.30571       .     S
O1    H14    0.98090       .     S
H14   O1     0.98090       .     S
C2    C3     1.38185   1_565     S
C3    C2     1.38185   1_545     S
C2    H12    0.95002       .     S
H12   C2     0.95002       .     S
C2    C21    1.38957       .     S
C21   C2     1.38957       .     S
C3    C4     1.39477       .     S
C4    C3     1.39477       .     S
C3    H13    0.95014       .     S
H13   C3     0.95014       .     S
C4    C5     1.49256       .     S
C5    C4     1.49256       .     S
C4    C23    1.42265       .     S
C23   C4     1.42265       .     S
C5    C6     1.39356       .     S
C6    C5     1.39356       .     S
C5    C10    1.40037       .     S
C10   C5     1.40037       .     S
C6    C7     1.38480       .     S
C7    C6     1.38480       .     S
C6    H15    0.94999       .     S
H15   C6     0.94999       .     S
C7    C8     1.39412       .     S
C8    C7     1.39412       .     S
C7    H16    0.94998       .     S
H16   C7     0.94998       .     S
C8    C9     1.39410       .     S
C9    C8     1.39410       .     S
C8    C11    1.47990       .     S
C11   C8     1.47990       .     S
C9    C10    1.38127       .     S
C10   C9     1.38127       .     S
C9    H17    0.95007       .     S
H17   C9     0.95007       .     S
C10   H18    0.94990       .     S
H18   C10    0.94990       .     S
O19   C30    1.24230       .     S
C30   O19    1.24230       .     S
O20   C30    1.30571       .     S
C30   O20    1.30571       .     S
O20   H33    0.98090       .     S
H33   O20    0.98090       .     S
C21   C22    1.38185   1_565     S
C22   C21    1.38185   1_545     S
C21   H31    0.95002       .     S
H31   C21    0.95002       .     S
C22   C23    1.39477       .     S
C23   C22    1.39477       .     S
C22   H32    0.95014       .     S
H32   C22    0.95014       .     S
C23   C24    1.49256       .     S
C24   C23    1.49256       .     S
C24   C25    1.39356       .     S
C25   C24    1.39356       .     S
C24   C29    1.40037       .     S
C29   C24    1.40037       .     S
C25   C26    1.38480       .     S
C26   C25    1.38480       .     S
C25   H34    0.94999       .     S
H34   C25    0.94999       .     S
C26   C27    1.39412       .     S
C27   C26    1.39412       .     S
C26   H35    0.94998       .     S
H35   C26    0.94998       .     S
C27   C28    1.39410       .     S
C28   C27    1.39410       .     S
C27   C30    1.47990       .     S
C30   C27    1.47990       .     S
C28   C29    1.38128       .     S
C29   C28    1.38128       .     S
C28   H36    0.95007       .     S
H36   C28    0.95007       .     S
C29   H37    0.94990       .     S
H37   C29    0.94990       .     S
C11   O0     1.24230       .     S
O0    C11    1.24230       .     S
C11   O1     1.30571       .     S
O1    C11    1.30571       .     S
H14   O1     0.98090       .     S
O1    H14    0.98090       .     S
C3    C2     1.38185   1_545     S
C2    C3     1.38185   1_565     S
H12   C2     0.95002       .     S
C2    H12    0.95002       .     S
C21   C2     1.38957       .     S
C2    C21    1.38957       .     S
C4    C3     1.39477       .     S
C3    C4     1.39477       .     S
H13   C3     0.95014       .     S
C3    H13    0.95014       .     S
C5    C4     1.49256       .     S
C4    C5     1.49256       .     S
C23   C4     1.42265       .     S
C4    C23    1.42265       .     S
C6    C5     1.39356       .     S
C5    C6     1.39356       .     S
C10   C5     1.40037       .     S
C5    C10    1.40037       .     S
C7    C6     1.38480       .     S
C6    C7     1.38480       .     S
H15   C6     0.94999       .     S
C6    H15    0.94999       .     S
C8    C7     1.39412       .     S
C7    C8     1.39412       .     S
H16   C7     0.94998       .     S
C7    H16    0.94998       .     S
C9    C8     1.39410       .     S
C8    C9     1.39410       .     S
C11   C8     1.47990       .     S
C8    C11    1.47990       .     S
C10   C9     1.38127       .     S
C9    C10    1.38127       .     S
H17   C9     0.95007       .     S
C9    H17    0.95007       .     S
H18   C10    0.94990       .     S
C10   H18    0.94990       .     S
C30   O19    1.24230       .     S
O19   C30    1.24230       .     S
C30   O20    1.30571       .     S
O20   C30    1.30571       .     S
H33   O20    0.98090       .     S
O20   H33    0.98090       .     S
C22   C21    1.38185   1_545     S
C21   C22    1.38185   1_565     S
H31   C21    0.95002       .     S
C21   H31    0.95002       .     S
C23   C22    1.39477       .     S
C22   C23    1.39477       .     S
H32   C22    0.95014       .     S
C22   H32    0.95014       .     S
C24   C23    1.49256       .     S
C23   C24    1.49256       .     S
C25   C24    1.39356       .     S
C24   C25    1.39356       .     S
C29   C24    1.40037       .     S
C24   C29    1.40037       .     S
C26   C25    1.38480       .     S
C25   C26    1.38480       .     S
H34   C25    0.94999       .     S
C25   H34    0.94999       .     S
C27   C26    1.39412       .     S
C26   C27    1.39412       .     S
H35   C26    0.94998       .     S
C26   H35    0.94998       .     S
C28   C27    1.39410       .     S
C27   C28    1.39410       .     S
C30   C27    1.47990       .     S
C27   C30    1.47990       .     S
C29   C28    1.38128       .     S
C28   C29    1.38128       .     S
H36   C28    0.95007       .     S
C28   H36    0.95007       .     S
H37   C29    0.94990       .     S
C29   H37    0.94990       .     S
