data_I
_chemical_name_common  '/data/user2/wty/HOF/MOFDiff/mofdiff/data/test/13-2b_ref_br'
_cell_length_a  9.36017
_cell_length_b 20.49180
_cell_length_c 22.43620
_cell_angle_alpha 114.13400
_cell_angle_beta  96.12200
_cell_angle_gamma 99.04700
_space_group_name_H-M_alt      'P 1'


loop_
_space_group_symop_operation_xyz
  'x, y, z' 

loop_
_atom_site_label
_atom_site_fract_x
_atom_site_fract_y
_atom_site_fract_z
_atom_site_type_symbol
Br0    0.36315  0.02689  0.05534    Br
Br1    0.47278  0.06241  0.21699    Br
O2      0.0225   0.4769   0.1003     O
O3      0.8462   0.3805   0.0312     O
O4      0.2655   0.5308   0.4902     O
O5      0.0378    0.499   0.4305     O
C6      0.2813   0.2355   0.2289     C
C7      0.3531   0.1876   0.2424     C
C8       0.378   0.1252   0.1927     C
C9      0.3328   0.1102   0.1259     C
C10     0.2628   0.1583   0.1121     C
C11     0.2366   0.2216   0.1616     C
C12     0.1642   0.2708   0.1415     C
C13       0.04   0.2415   0.0904     C
C14     0.9708   0.2864   0.0707     C
C15     0.0306   0.3618   0.0996     C
C16     0.1555   0.3913   0.1489     C
C17     0.2216   0.3468   0.1703     C
C18     0.9594   0.4084   0.0746     C
C19     0.2532   0.2998   0.2847     C
C20     0.1124   0.3145   0.2847     C
C21     0.0868   0.3758   0.3352     C
C22     0.1991   0.4224   0.3867     C
C23     0.3397    0.408   0.3897     C
C24     0.3672   0.3472   0.3381     C
C25     0.1694   0.4895   0.4405     C
H26    0.38648  0.19787  0.28751     H
H27    0.23112  0.14797   0.0669     H
H28    0.00242  0.18996  0.06893     H
H29    0.88337  0.26604  0.03777     H
H30    0.19625  0.44253  0.16824     H
H31    0.30654  0.36784  0.20466     H
H32    0.03347  0.28204  0.24956     H
H33    0.99098  0.38561  0.33417     H
H34    0.41612  0.43934  0.42654     H
H35    0.46348  0.33791   0.3391     H
H36    0.02511  0.54594  0.46672     H
H37    0.97119  0.50558  0.08161     H
Cl38    0.2767  0.66081  0.21925    Cl
Cl39    0.8684  0.81645  0.21381    Cl
Cl40    0.1801  0.86523  0.44768    Cl
C41     0.2233   0.7663   0.3298     C
C42     0.1872   0.7301   0.2613     C
C43     0.0793   0.7419   0.2211     C
C44     0.0089   0.7986   0.2591     C
C45     0.0388   0.8347   0.3247     C
C46      0.145   0.8218   0.3624     C
H47    0.29666  0.75492  0.35436     H
H48    0.05519  0.71531  0.17407     H
H49    0.98509  0.87057  0.34608     H
Br50   0.24206  0.86325  0.86492    Br
Br51    0.2951  0.70266   0.7526    Br
O52     0.6699   0.9475   0.3017     O
O53     0.4935   0.8537     0.29     O
O54     0.9108   0.5609   0.0548     O
O55     0.7327   0.4634   0.9869     O
C56      0.482   0.7151   0.9341     C
C57     0.4304    0.693   0.8669     C
C58     0.3597   0.7364   0.8451     C
C59     0.3387   0.8012   0.8897     C
C60     0.3888    0.824   0.9576     C
C61     0.4603   0.7816   0.9812     C
C62     0.4979   0.8082   0.0538     C
C63     0.5847   0.8783   0.0947     C
C64      0.614   0.9045   0.1638     C
C65     0.5509   0.8608   0.1914     C
C66     0.4655   0.7907   0.1525     C
C67     0.4415   0.7644   0.0835     C
C68     0.5732   0.8888   0.2667     C
C69     0.5632   0.6675   0.9538     C
C70     0.6949   0.6977   0.9994     C
C71     0.7708    0.654   0.0185     C
C72     0.7138   0.5792   0.9918     C
C73     0.5827    0.548   0.9447     C
C74     0.5083   0.5921   0.9265     C
C75     0.7906    0.531   0.0123     C
H76    0.44351  0.64747  0.83525     H
H77    0.37391  0.86944  0.98864     H
H78    0.62421  0.90864  0.07512     H
H79    0.67607  0.95131  0.19113     H
H80     0.4241  0.76126  0.17249     H
H81    0.38583  0.71603  0.05633     H
H82    0.73404  0.74909  0.01794     H
H83    0.86107  0.67536  0.04967     H
H84    0.54477  0.49648  0.92518     H
H85    0.41861  0.57071  0.89491     H
H86    0.50828  0.87223  0.33912     H
H87    0.78309   0.4326  0.00299     H
Cl88     0.476  0.51983  0.25496    Cl
H89    0.48253  0.53782   0.2921     H
Cl90    0.6944  0.48597  0.35037    Cl
Cl91    0.3412   0.7256  0.47109    Cl
C92     0.6117   0.5895   0.4482     C
C93     0.5925   0.5511   0.3802     C
C94     0.4955    0.565   0.3389     C
C95     0.4173   0.6179   0.3651     C
C96     0.4374   0.6563    0.435     C
C97     0.5349   0.6438   0.4783     C
H98    0.67944  0.57867  0.47565     H
H99    0.35127  0.62858  0.33687     H
H100   0.54842  0.67044  0.52518     H
Cl101   0.5073   0.7152   0.5417    Cl
Br102  0.04072  0.03755  0.93986    Br
Br103  0.85742  0.14896  0.89915    Br
O104    0.2096   0.6548   0.5773     O
O105    0.9946   0.6247   0.5067     O
O106    0.7719   0.9537    0.419     O
O107    0.5436   0.9044    0.419     O
C108    0.8695   0.9821   0.7165     C
C109    0.8434   0.0454    0.767     C
C110    0.8936   0.0626   0.8336     C
C111    0.9705   0.0179   0.8511     C
C112    0.9958   0.9567   0.8025     C
C113    0.9495   0.9383   0.7336     C
C114    0.9845     0.87   0.6846     C
C115    0.1271   0.8582   0.6947     C
C116    0.1621   0.7945   0.6537     C
C117    0.0529   0.7395   0.6006     C
C118    0.9144   0.7522   0.5895     C
C119    0.8799   0.8157   0.6311     C
C120    0.0868   0.6683   0.5589     C
C121    0.8179   0.9678   0.6466     C
C122    0.9191   0.9633   0.6048     C
C123    0.8718   0.9522   0.5388     C
C124    0.7228   0.9428   0.5149     C
C125      0.62   0.9458    0.557     C
C126    0.6691   0.9601   0.6227     C
C127    0.6741   0.9308   0.4466     C
H128   0.79158  0.07626  0.75572     H
H129   0.04532  0.92559  0.81453     H
H130   0.20012  0.89494  0.73032     H
H131   0.25898  0.78709  0.66086     H
H132   0.84241  0.71658  0.55274     H
H133   0.78311  0.82302  0.62339     H
H134   0.02003  0.96764  0.62058     H
H135   0.94149  0.95117  0.51077     H
H136     0.518   0.9382  0.54058     H
H137   0.60067  0.96457  0.65174     H
H138   0.22695  0.60653  0.54566     H
H139   0.73587  0.95198   0.3747     H
Cl140   0.7797  0.76417  0.42653    Cl
H141   0.79723  0.73386   0.3935     H
Cl142   0.6554  0.63616  0.16247    Cl
Cl143   0.0293  0.53862  0.28801    Cl
C144    0.7488   0.6407   0.2368     C
C145    0.7281   0.6932    0.295     C
C146    0.8075   0.6972   0.3523     C
C147    0.9016   0.6514   0.3543     C
C148    0.9175   0.5994   0.2921     C
C149    0.8444   0.5924   0.2326     C
H150   0.95186  0.65507  0.39503     H
H151   0.85727  0.55735  0.19103     H
Cl152   0.6582   0.7544   0.3211    Cl
H153   0.66335  0.72484   0.2959     H
loop_
_geom_bond_atom_site_label_1
_geom_bond_atom_site_label_2
_geom_bond_distance
_geom_bond_site_symmetry_2
_ccdc_geom_bond_type
H36   O105   1.58325   1_455     S
O105  H36    1.58325   1_655     S
H37   O54    1.62880       .     S
O54   H37    1.62880       .     S
H86   O107   1.61084       .     S
O107  H86    1.61084       .     S
H87   O3     1.60016       .     S
O3    H87    1.60016       .     S
H138  O4     1.66720       .     S
O4    H138   1.66720       .     S
H139  O52    1.64796       .     S
O52   H139   1.64796       .     S
Br0   C9     1.88142       .     S
C9    Br0    1.88142       .     S
Br1   C8     1.88914       .     S
C8    Br1    1.88914       .     S
O2    C18    1.28702   1_455     S
C18   O2     1.28702   1_655     S
O2    H37    0.99962   1_455     S
H37   O2     0.99962   1_655     S
O3    C18    1.23770       .     S
C18   O3     1.23770       .     S
O4    C25    1.24246       .     S
C25   O4     1.24246       .     S
O5    C25    1.28754       .     S
C25   O5     1.28754       .     S
O5    H36    1.00848       .     S
H36   O5     1.00848       .     S
C6    C7     1.38348       .     S
C7    C6     1.38348       .     S
C6    C11    1.41853       .     S
C11   C6     1.41853       .     S
C6    C19    1.48423       .     S
C19   C6     1.48423       .     S
C7    C8     1.38418       .     S
C8    C7     1.38418       .     S
C7    H26    0.95076       .     S
H26   C7     0.95076       .     S
C8    C9     1.40244       .     S
C9    C8     1.40244       .     S
C9    C10    1.38061       .     S
C10   C9     1.38061       .     S
C10   C11    1.39864       .     S
C11   C10    1.39864       .     S
C10   H27    0.94960       .     S
H27   C10    0.94960       .     S
C11   C12    1.48343       .     S
C12   C11    1.48343       .     S
C12   C13    1.39990       .     S
C13   C12    1.39990       .     S
C12   C17    1.40410       .     S
C17   C12    1.40410       .     S
C13   C14    1.38577   1_455     S
C14   C13    1.38577   1_655     S
C13   H28    0.94985       .     S
H28   C13    0.94985       .     S
C14   C15    1.39727   1_655     S
C15   C14    1.39727   1_455     S
C14   H29    0.94933       .     S
H29   C14    0.94933       .     S
C15   C16    1.38232       .     S
C16   C15    1.38232       .     S
C15   C18    1.49300   1_455     S
C18   C15    1.49300   1_655     S
C16   C17    1.38454       .     S
C17   C16    1.38454       .     S
C16   H30    0.94979       .     S
H30   C16    0.94979       .     S
C17   H31    0.94972       .     S
H31   C17    0.94972       .     S
C19   C20    1.39731       .     S
C20   C19    1.39731       .     S
C19   C24    1.40258       .     S
C24   C19    1.40258       .     S
C20   C21    1.38123       .     S
C21   C20    1.38123       .     S
C20   H32    0.94986       .     S
H32   C20    0.94986       .     S
C21   C22    1.36926       .     S
C22   C21    1.36926       .     S
C21   H33    0.94944   1_455     S
H33   C21    0.94944   1_655     S
C22   C23    1.39393       .     S
C23   C22    1.39393       .     S
C22   C25    1.50316       .     S
C25   C22    1.50316       .     S
C23   C24    1.39418       .     S
C24   C23    1.39418       .     S
C23   H34    0.95007       .     S
H34   C23    0.95007       .     S
C24   H35    0.94975       .     S
H35   C24    0.94975       .     S
Cl38  C42    1.74790       .     S
C42   Cl38   1.74790       .     S
Cl39  C44    1.75100   1_655     S
C44   Cl39   1.75100   1_455     S
Cl40  C46    1.71535       .     S
C46   Cl40   1.71535       .     S
C41   C42    1.38006       .     S
C42   C41    1.38006       .     S
C41   C46    1.43590       .     S
C46   C41    1.43590       .     S
C41   H47    0.95092       .     S
H47   C41    0.95092       .     S
C42   C43    1.39744       .     S
C43   C42    1.39744       .     S
C43   C44    1.43584       .     S
C44   C43    1.43584       .     S
C43   H48    0.94952       .     S
H48   C43    0.94952       .     S
C44   C45    1.32230       .     S
C45   C44    1.32230       .     S
C45   C46    1.36367       .     S
C46   C45    1.36367       .     S
C45   H49    0.94997   1_455     S
H49   C45    0.94997   1_655     S
Br50  C59    1.89120       .     S
C59   Br50   1.89120       .     S
Br51  C58    1.89162       .     S
C58   Br51   1.89162       .     S
O52   C68    1.27137       .     S
C68   O52    1.27137       .     S
O53   C68    1.25262       .     S
C68   O53    1.25262       .     S
O53   H86    0.99329       .     S
H86   O53    0.99329       .     S
O54   C75    1.27558       .     S
C75   O54    1.27558       .     S
O55   C75    1.26090   1_556     S
C75   O55    1.26090   1_554     S
O55   H87    0.99737   1_556     S
H87   O55    0.99737   1_554     S
C56   C57    1.38892       .     S
C57   C56    1.38892       .     S
C56   C61    1.40363       .     S
C61   C56    1.40363       .     S
C56   C69    1.49616       .     S
C69   C56    1.49616       .     S
C57   C58    1.39279       .     S
C58   C57    1.39279       .     S
C57   H76    0.95005       .     S
H76   C57    0.95005       .     S
C58   C59    1.35671       .     S
C59   C58    1.35671       .     S
C59   C60    1.39846       .     S
C60   C59    1.39846       .     S
C60   C61    1.40238       .     S
C61   C60    1.40238       .     S
C60   H77    0.95010       .     S
H77   C60    0.95010       .     S
C61   C62    1.47158   1_556     S
C62   C61    1.47158   1_554     S
C62   C63    1.40059       .     S
C63   C62    1.40059       .     S
C62   C67    1.39406       .     S
C67   C62    1.39406       .     S
C63   C64    1.39620       .     S
C64   C63    1.39620       .     S
C63   H78    0.94973       .     S
H78   C63    0.94973       .     S
C64   C65    1.37816       .     S
C65   C64    1.37816       .     S
C64   H79    0.94943       .     S
H79   C64    0.94943       .     S
C65   C66    1.38889       .     S
C66   C65    1.38889       .     S
C65   C68    1.52363       .     S
C68   C65    1.52363       .     S
C66   C67    1.39392       .     S
C67   C66    1.39392       .     S
C66   H80    0.94872       .     S
H80   C66    0.94872       .     S
C67   H81    0.94937       .     S
H81   C67    0.94937       .     S
C69   C70    1.38660       .     S
C70   C69    1.38660       .     S
C69   C74    1.39133       .     S
C74   C69    1.39133       .     S
C70   C71    1.39256   1_556     S
C71   C70    1.39256   1_554     S
C70   H82    0.95088   1_556     S
H82   C70    0.95088   1_554     S
C71   C72    1.38446   1_554     S
C72   C71    1.38446   1_556     S
C71   H83    0.94970       .     S
H83   C71    0.94970       .     S
C72   C73    1.39839       .     S
C73   C72    1.39839       .     S
C72   C75    1.49269   1_556     S
C75   C72    1.49269   1_554     S
C73   C74    1.38108       .     S
C74   C73    1.38108       .     S
C73   H84    0.95042       .     S
H84   C73    0.95042       .     S
C74   H85    0.95004       .     S
H85   C74    0.95004       .     S
Cl88  H89    0.75156       .     S
H89   Cl88   0.75156       .     S
Cl88  C94    1.69851       .     S
C94   Cl88   1.69851       .     S
H89   C94    0.94910       .     S
C94   H89    0.94910       .     S
Cl90  C93    1.71609       .     S
C93   Cl90   1.71609       .     S
Cl91  C96    1.76081       .     S
C96   Cl91   1.76081       .     S
Cl91  Cl101  2.19711       .     S
Cl101 Cl91   2.19711       .     S
C92   C93    1.37639       .     S
C93   C92    1.37639       .     S
C92   C97    1.39698       .     S
C97   C92    1.39698       .     S
C92   H98    0.95043       .     S
H98   C92    0.95043       .     S
C93   C94    1.37179       .     S
C94   C93    1.37179       .     S
C94   C95    1.36990       .     S
C95   C94    1.36990       .     S
C95   C96    1.41261       .     S
C96   C95    1.41261       .     S
C95   H99    0.95050       .     S
H99   C95    0.95050       .     S
C96   C97    1.38931       .     S
C97   C96    1.38931       .     S
C97   H100   0.94904       .     S
H100  C97    0.94904       .     S
C97   Cl101  1.65111       .     S
Cl101 C97    1.65111       .     S
H100  Cl101  0.99511       .     S
Cl101 H100   0.99511       .     S
Br102 C111   1.88197   1_455     S
C111  Br102  1.88197   1_655     S
Br103 C110   1.89097       .     S
C110  Br103  1.89097       .     S
O104  C120   1.28853       .     S
C120  O104   1.28853       .     S
O104  H138   1.00479       .     S
H138  O104   1.00479       .     S
O105  C120   1.26528   1_655     S
C120  O105   1.26528   1_455     S
O106  C127   1.29039       .     S
C127  O106   1.29039       .     S
O106  H139   0.99949       .     S
H139  O106   0.99949       .     S
O107  C127   1.23495       .     S
C127  O107   1.23495       .     S
C108  C109   1.40814   1_565     S
C109  C108   1.40814   1_545     S
C108  C113   1.39469       .     S
C113  C108   1.39469       .     S
C108  C121   1.48216       .     S
C121  C108   1.48216       .     S
C109  C110   1.39473       .     S
C110  C109   1.39473       .     S
C109  H128   0.94888       .     S
H128  C109   0.94888       .     S
C110  C111   1.39731       .     S
C111  C110   1.39731       .     S
C111  C112   1.35943   1_545     S
C112  C111   1.35943   1_565     S
C112  C113   1.43134       .     S
C113  C112   1.43134       .     S
C112  H129   0.94924   1_655     S
H129  C112   0.94924   1_455     S
C113  C114   1.49585       .     S
C114  C113   1.49585       .     S
C114  C115   1.40471   1_655     S
C115  C114   1.40471   1_455     S
C114  C119   1.39715       .     S
C119  C114   1.39715       .     S
C115  C116   1.36903       .     S
C116  C115   1.36903       .     S
C115  H130   0.94989       .     S
H130  C115   0.94989       .     S
C116  C117   1.41926       .     S
C117  C116   1.41926       .     S
C116  H131   0.95045       .     S
H131  C116   0.95045       .     S
C117  C118   1.37862   1_455     S
C118  C117   1.37862   1_655     S
C117  C120   1.48236       .     S
C120  C117   1.48236       .     S
C118  C119   1.36817       .     S
C119  C118   1.36817       .     S
C118  H132   0.94950       .     S
H132  C118   0.94950       .     S
C119  H133   0.95065       .     S
H133  C119   0.95065       .     S
C121  C122   1.38980       .     S
C122  C121   1.38980       .     S
C121  C126   1.39811       .     S
C126  C121   1.39811       .     S
C122  C123   1.41193       .     S
C123  C122   1.41193       .     S
C122  H134   0.94987   1_655     S
H134  C122   0.94987   1_455     S
C123  C124   1.39329       .     S
C124  C123   1.39329       .     S
C123  H135   0.94996       .     S
H135  C123   0.94996       .     S
C124  C125   1.40955       .     S
C125  C124   1.40955       .     S
C124  C127   1.45743       .     S
C127  C124   1.45743       .     S
C125  C126   1.38919       .     S
C126  C125   1.38919       .     S
C125  H136   0.95016       .     S
H136  C125   0.95016       .     S
C126  H137   0.94965       .     S
H137  C126   0.94965       .     S
Cl140 H141   0.80217       .     S
H141  Cl140  0.80217       .     S
Cl140 C146   1.74942       .     S
C146  Cl140  1.74942       .     S
H141  C146   0.94966       .     S
C146  H141   0.94966       .     S
Cl142 C144   1.75804       .     S
C144  Cl142  1.75804       .     S
Cl143 C148   1.72965   1_455     S
C148  Cl143  1.72965   1_655     S
C144  C145   1.36776       .     S
C145  C144   1.36776       .     S
C144  C149   1.41756       .     S
C149  C144   1.41756       .     S
C145  C146   1.37938       .     S
C146  C145   1.37938       .     S
C145  Cl152  1.44325       .     S
Cl152 C145   1.44325       .     S
C145  H153   0.95057       .     S
H153  C145   0.95057       .     S
C146  C147   1.39449       .     S
C147  C146   1.39449       .     S
C147  C148   1.40828       .     S
C148  C147   1.40828       .     S
C147  H150   0.95028       .     S
H150  C147   0.95028       .     S
C148  C149   1.37425       .     S
C149  C148   1.37425       .     S
C149  H151   0.95060       .     S
H151  C149   0.95060       .     S
Cl152 H153   0.65103       .     S
H153  Cl152  0.65103       .     S
O105  H36    1.58325   1_655     S
H36   O105   1.58325   1_455     S
O54   H37    1.62880       .     S
H37   O54    1.62880       .     S
O107  H86    1.61084       .     S
H86   O107   1.61084       .     S
O3    H87    1.60016       .     S
H87   O3     1.60016       .     S
O4    H138   1.66720       .     S
H138  O4     1.66720       .     S
O52   H139   1.64796       .     S
H139  O52    1.64796       .     S
C9    Br0    1.88142       .     S
Br0   C9     1.88142       .     S
C8    Br1    1.88914       .     S
Br1   C8     1.88914       .     S
C18   O2     1.28702   1_655     S
O2    C18    1.28702   1_455     S
H37   O2     0.99962   1_655     S
O2    H37    0.99962   1_455     S
C18   O3     1.23770       .     S
O3    C18    1.23770       .     S
C25   O4     1.24246       .     S
O4    C25    1.24246       .     S
C25   O5     1.28754       .     S
O5    C25    1.28754       .     S
H36   O5     1.00848       .     S
O5    H36    1.00848       .     S
C7    C6     1.38348       .     S
C6    C7     1.38348       .     S
C11   C6     1.41853       .     S
C6    C11    1.41853       .     S
C19   C6     1.48423       .     S
C6    C19    1.48423       .     S
C8    C7     1.38418       .     S
C7    C8     1.38418       .     S
H26   C7     0.95076       .     S
C7    H26    0.95076       .     S
C9    C8     1.40244       .     S
C8    C9     1.40244       .     S
C10   C9     1.38061       .     S
C9    C10    1.38061       .     S
C11   C10    1.39864       .     S
C10   C11    1.39864       .     S
H27   C10    0.94960       .     S
C10   H27    0.94960       .     S
C12   C11    1.48343       .     S
C11   C12    1.48343       .     S
C13   C12    1.39990       .     S
C12   C13    1.39990       .     S
C17   C12    1.40410       .     S
C12   C17    1.40410       .     S
C14   C13    1.38577   1_655     S
C13   C14    1.38577   1_455     S
H28   C13    0.94985       .     S
C13   H28    0.94985       .     S
C15   C14    1.39727   1_455     S
C14   C15    1.39727   1_655     S
H29   C14    0.94933       .     S
C14   H29    0.94933       .     S
C16   C15    1.38232       .     S
C15   C16    1.38232       .     S
C18   C15    1.49300   1_655     S
C15   C18    1.49300   1_455     S
C17   C16    1.38454       .     S
C16   C17    1.38454       .     S
H30   C16    0.94979       .     S
C16   H30    0.94979       .     S
H31   C17    0.94972       .     S
C17   H31    0.94972       .     S
C20   C19    1.39731       .     S
C19   C20    1.39731       .     S
C24   C19    1.40258       .     S
C19   C24    1.40258       .     S
C21   C20    1.38123       .     S
C20   C21    1.38123       .     S
H32   C20    0.94986       .     S
C20   H32    0.94986       .     S
C22   C21    1.36926       .     S
C21   C22    1.36926       .     S
H33   C21    0.94944   1_655     S
C21   H33    0.94944   1_455     S
C23   C22    1.39393       .     S
C22   C23    1.39393       .     S
C25   C22    1.50316       .     S
C22   C25    1.50316       .     S
C24   C23    1.39418       .     S
C23   C24    1.39418       .     S
H34   C23    0.95007       .     S
C23   H34    0.95007       .     S
H35   C24    0.94975       .     S
C24   H35    0.94975       .     S
C42   Cl38   1.74790       .     S
Cl38  C42    1.74790       .     S
C44   Cl39   1.75100   1_455     S
Cl39  C44    1.75100   1_655     S
C46   Cl40   1.71535       .     S
Cl40  C46    1.71535       .     S
C42   C41    1.38006       .     S
C41   C42    1.38006       .     S
C46   C41    1.43590       .     S
C41   C46    1.43590       .     S
H47   C41    0.95092       .     S
C41   H47    0.95092       .     S
C43   C42    1.39744       .     S
C42   C43    1.39744       .     S
C44   C43    1.43584       .     S
C43   C44    1.43584       .     S
H48   C43    0.94952       .     S
C43   H48    0.94952       .     S
C45   C44    1.32230       .     S
C44   C45    1.32230       .     S
C46   C45    1.36367       .     S
C45   C46    1.36367       .     S
H49   C45    0.94997   1_655     S
C45   H49    0.94997   1_455     S
C59   Br50   1.89120       .     S
Br50  C59    1.89120       .     S
C58   Br51   1.89162       .     S
Br51  C58    1.89162       .     S
C68   O52    1.27137       .     S
O52   C68    1.27137       .     S
C68   O53    1.25262       .     S
O53   C68    1.25262       .     S
H86   O53    0.99329       .     S
O53   H86    0.99329       .     S
C75   O54    1.27558       .     S
O54   C75    1.27558       .     S
C75   O55    1.26090   1_554     S
O55   C75    1.26090   1_556     S
H87   O55    0.99737   1_554     S
O55   H87    0.99737   1_556     S
C57   C56    1.38892       .     S
C56   C57    1.38892       .     S
C61   C56    1.40363       .     S
C56   C61    1.40363       .     S
C69   C56    1.49616       .     S
C56   C69    1.49616       .     S
C58   C57    1.39279       .     S
C57   C58    1.39279       .     S
H76   C57    0.95005       .     S
C57   H76    0.95005       .     S
C59   C58    1.35671       .     S
C58   C59    1.35671       .     S
C60   C59    1.39846       .     S
C59   C60    1.39846       .     S
C61   C60    1.40238       .     S
C60   C61    1.40238       .     S
H77   C60    0.95010       .     S
C60   H77    0.95010       .     S
C62   C61    1.47158   1_554     S
C61   C62    1.47158   1_556     S
C63   C62    1.40059       .     S
C62   C63    1.40059       .     S
C67   C62    1.39406       .     S
C62   C67    1.39406       .     S
C64   C63    1.39620       .     S
C63   C64    1.39620       .     S
H78   C63    0.94973       .     S
C63   H78    0.94973       .     S
C65   C64    1.37816       .     S
C64   C65    1.37816       .     S
H79   C64    0.94943       .     S
C64   H79    0.94943       .     S
C66   C65    1.38889       .     S
C65   C66    1.38889       .     S
C68   C65    1.52363       .     S
C65   C68    1.52363       .     S
C67   C66    1.39392       .     S
C66   C67    1.39392       .     S
H80   C66    0.94872       .     S
C66   H80    0.94872       .     S
H81   C67    0.94937       .     S
C67   H81    0.94937       .     S
C70   C69    1.38660       .     S
C69   C70    1.38660       .     S
C74   C69    1.39133       .     S
C69   C74    1.39133       .     S
C71   C70    1.39256   1_554     S
C70   C71    1.39256   1_556     S
H82   C70    0.95088   1_554     S
C70   H82    0.95088   1_556     S
C72   C71    1.38446   1_556     S
C71   C72    1.38446   1_554     S
H83   C71    0.94970       .     S
C71   H83    0.94970       .     S
C73   C72    1.39839       .     S
C72   C73    1.39839       .     S
C75   C72    1.49269   1_554     S
C72   C75    1.49269   1_556     S
C74   C73    1.38108       .     S
C73   C74    1.38108       .     S
H84   C73    0.95042       .     S
C73   H84    0.95042       .     S
H85   C74    0.95004       .     S
C74   H85    0.95004       .     S
H89   Cl88   0.75156       .     S
Cl88  H89    0.75156       .     S
C94   Cl88   1.69851       .     S
Cl88  C94    1.69851       .     S
C94   H89    0.94910       .     S
H89   C94    0.94910       .     S
C93   Cl90   1.71609       .     S
Cl90  C93    1.71609       .     S
C96   Cl91   1.76081       .     S
Cl91  C96    1.76081       .     S
Cl101 Cl91   2.19711       .     S
Cl91  Cl101  2.19711       .     S
C93   C92    1.37639       .     S
C92   C93    1.37639       .     S
C97   C92    1.39698       .     S
C92   C97    1.39698       .     S
H98   C92    0.95043       .     S
C92   H98    0.95043       .     S
C94   C93    1.37179       .     S
C93   C94    1.37179       .     S
C95   C94    1.36990       .     S
C94   C95    1.36990       .     S
C96   C95    1.41261       .     S
C95   C96    1.41261       .     S
H99   C95    0.95050       .     S
C95   H99    0.95050       .     S
C97   C96    1.38931       .     S
C96   C97    1.38931       .     S
H100  C97    0.94904       .     S
C97   H100   0.94904       .     S
Cl101 C97    1.65111       .     S
C97   Cl101  1.65111       .     S
Cl101 H100   0.99511       .     S
H100  Cl101  0.99511       .     S
C111  Br102  1.88197   1_655     S
Br102 C111   1.88197   1_455     S
C110  Br103  1.89097       .     S
Br103 C110   1.89097       .     S
C120  O104   1.28853       .     S
O104  C120   1.28853       .     S
H138  O104   1.00479       .     S
O104  H138   1.00479       .     S
C120  O105   1.26528   1_455     S
O105  C120   1.26528   1_655     S
C127  O106   1.29039       .     S
O106  C127   1.29039       .     S
H139  O106   0.99949       .     S
O106  H139   0.99949       .     S
C127  O107   1.23495       .     S
O107  C127   1.23495       .     S
C109  C108   1.40814   1_545     S
C108  C109   1.40814   1_565     S
C113  C108   1.39469       .     S
C108  C113   1.39469       .     S
C121  C108   1.48216       .     S
C108  C121   1.48216       .     S
C110  C109   1.39473       .     S
C109  C110   1.39473       .     S
H128  C109   0.94888       .     S
C109  H128   0.94888       .     S
C111  C110   1.39731       .     S
C110  C111   1.39731       .     S
C112  C111   1.35943   1_565     S
C111  C112   1.35943   1_545     S
C113  C112   1.43134       .     S
C112  C113   1.43134       .     S
H129  C112   0.94924   1_455     S
C112  H129   0.94924   1_655     S
C114  C113   1.49585       .     S
C113  C114   1.49585       .     S
C115  C114   1.40471   1_455     S
C114  C115   1.40471   1_655     S
C119  C114   1.39715       .     S
C114  C119   1.39715       .     S
C116  C115   1.36903       .     S
C115  C116   1.36903       .     S
H130  C115   0.94989       .     S
C115  H130   0.94989       .     S
C117  C116   1.41926       .     S
C116  C117   1.41926       .     S
H131  C116   0.95045       .     S
C116  H131   0.95045       .     S
C118  C117   1.37862   1_655     S
C117  C118   1.37862   1_455     S
C120  C117   1.48236       .     S
C117  C120   1.48236       .     S
C119  C118   1.36817       .     S
C118  C119   1.36817       .     S
H132  C118   0.94950       .     S
C118  H132   0.94950       .     S
H133  C119   0.95065       .     S
C119  H133   0.95065       .     S
C122  C121   1.38980       .     S
C121  C122   1.38980       .     S
C126  C121   1.39811       .     S
C121  C126   1.39811       .     S
C123  C122   1.41193       .     S
C122  C123   1.41193       .     S
H134  C122   0.94987   1_455     S
C122  H134   0.94987   1_655     S
C124  C123   1.39329       .     S
C123  C124   1.39329       .     S
H135  C123   0.94996       .     S
C123  H135   0.94996       .     S
C125  C124   1.40955       .     S
C124  C125   1.40955       .     S
C127  C124   1.45743       .     S
C124  C127   1.45743       .     S
C126  C125   1.38919       .     S
C125  C126   1.38919       .     S
H136  C125   0.95016       .     S
C125  H136   0.95016       .     S
H137  C126   0.94965       .     S
C126  H137   0.94965       .     S
H141  Cl140  0.80217       .     S
Cl140 H141   0.80217       .     S
C146  Cl140  1.74942       .     S
Cl140 C146   1.74942       .     S
C146  H141   0.94966       .     S
H141  C146   0.94966       .     S
C144  Cl142  1.75804       .     S
Cl142 C144   1.75804       .     S
C148  Cl143  1.72965   1_655     S
Cl143 C148   1.72965   1_455     S
C145  C144   1.36776       .     S
C144  C145   1.36776       .     S
C149  C144   1.41756       .     S
C144  C149   1.41756       .     S
C146  C145   1.37938       .     S
C145  C146   1.37938       .     S
Cl152 C145   1.44325       .     S
C145  Cl152  1.44325       .     S
H153  C145   0.95057       .     S
C145  H153   0.95057       .     S
C147  C146   1.39449       .     S
C146  C147   1.39449       .     S
C148  C147   1.40828       .     S
C147  C148   1.40828       .     S
H150  C147   0.95028       .     S
C147  H150   0.95028       .     S
C149  C148   1.37425       .     S
C148  C149   1.37425       .     S
H151  C149   0.95060       .     S
C149  H151   0.95060       .     S
H153  Cl152  0.65103       .     S
Cl152 H153   0.65103       .     S
