data_I
_chemical_name_common  '/data/user2/wty/HOF/MOFDiff/mofdiff/data/test/13-3_ref_1234'
_cell_length_a 11.65240
_cell_length_b 13.98490
_cell_length_c 24.72020
_cell_angle_alpha 77.98100
_cell_angle_beta  82.13200
_cell_angle_gamma 73.46100
_space_group_name_H-M_alt      'P 1'


loop_
_space_group_symop_operation_xyz
  'x, y, z' 

loop_
_atom_site_label
_atom_site_fract_x
_atom_site_fract_y
_atom_site_fract_z
_atom_site_type_symbol
Cl0    0.68769  0.57683   0.3757    Cl
Cl1    0.99462  0.81328   0.3271    Cl
Cl2     0.7032  0.81904  0.17641    Cl
C3      0.7049   0.7004   0.2775     C
C4      0.7491   0.6658   0.3296     C
C5      0.8379   0.6985    0.347     C
C6      0.8828   0.7686   0.3088     C
C7      0.8437   0.8062  0.25675     C
C8      0.7545   0.7718   0.2421     C
H9     0.64426  0.67648  0.26688     H
H10     0.8658  0.67397  0.38294     H
H11    0.87693  0.85456  0.23158     H
O12     0.8345   0.0876  0.34246     O
O13     0.9868   0.0672   0.2763     O
O14     0.8906   0.4736  0.05531     O
O15     0.9478    0.426  0.97306     O
O16     0.4335     0.53  0.82049     O
O17     0.4874   0.3927  0.78007     O
O18     0.9739   0.2196   0.8821     O
O19      0.999    0.053  0.91287     O
C20     0.5523   0.1114  0.12927     C
C21     0.5545   0.1728  0.07603     C
C22     0.4703   0.1792  0.03892     C
C23     0.3818   0.1242  0.05472     C
C24     0.3815   0.0639  0.10762     C
C25     0.4645   0.0573   0.1435     C
C26      0.637   0.1019  0.17068     C
C27     0.7617   0.0751  0.15811     C
C28     0.8392   0.0681  0.19793     C
C29     0.7929    0.089  0.25062     C
C30     0.6693   0.1153  0.26332     C
C31     0.5918   0.1229  0.22384     C
C32     0.8733   0.0812  0.29346     C
C33     0.6438   0.2345  0.06065     C
C34     0.6523   0.2965  0.09657     C
C35     0.7349   0.3543  0.08399     C
C36     0.8063   0.3535  0.03417     C
C37     0.7981   0.2928  0.99745     C
C38     0.7186   0.2329  0.01158     C
C39     0.8879   0.4201  0.01825     C
C40     0.4714   0.2442  0.98275     C
C41     0.4511   0.3489  0.97793     C
C42     0.4504   0.4107  0.92629     C
C43     0.4701   0.3671  0.87838     C
C44     0.4929   0.2634  0.88282     C
C45      0.493    0.202  0.93505     C
C46     0.4639   0.4322  0.82238     C
C47     0.2885   0.1302  0.01855     C
C48     0.2234   0.2221   0.9888     C
C49     0.1386   0.2243  0.95452     C
C50     0.1128   0.1347  0.94981     C
C51     0.1725   0.0437   0.9804     C
C52     0.2593   0.0418  0.01364     C
C53     0.0226   0.1394  0.91194     C
H54    0.02638  0.06313  0.30302     H
H55     0.9455  0.50316  0.04542     H
H56    0.43132  0.55964  0.78726     H
H57    0.94467  0.06201  0.89178     H
H58    0.32276  0.02689  0.11884     H
H59    0.46261  0.01505  0.17891     H
H60    0.79371  0.06151  0.12219     H
H61    0.92364   0.0491  0.18917     H
H62    0.63762  0.12821  0.29938     H
H63    0.50747  0.14238  0.23281     H
H64    0.60127  0.29931  0.12995     H
H65    0.74249  0.39413  0.10941     H
H66    0.84645  0.29255  0.96323     H
H67    0.71486   0.1897  0.98726     H
H68    0.43769  0.37805  0.01046     H
H69    0.43681  0.48184  0.92327     H
H70    0.50835  0.23403  0.85032     H
H71    0.50802  0.13074  0.93801     H
H72    0.23808  0.28387   0.9924     H
H73    0.09735  0.28711  0.93391     H
H74    0.15378   0.9827  0.97851     H
H75    0.30061  0.97866  0.03389     H
O76     0.1499   0.9328  0.16009     O
O77     0.1685   0.7678  0.19292     O
O78     0.1434   0.4883  0.49987     O
O79     0.0017    0.629  0.47126     O
O80      0.405   0.6316  0.71706     O
O81     0.5418   0.5015  0.68607     O
O82     0.0343   0.9134  0.57901     O
O83     0.8841    0.937  0.64463     O
C84     0.4746   0.8631  0.36458     C
C85       0.46   0.8145   0.4202     C
C86     0.5318   0.8228   0.4597     C
C87     0.6177   0.8795  0.44367     C
C88     0.6301   0.9265  0.38785     C
C89     0.5596   0.9183  0.34989     C
C90     0.4012   0.8578  0.32066     C
C91      0.346   0.9478  0.28622     C
C92     0.2771   0.9459  0.24528     C
C93     0.2618   0.8541  0.23798     C
C94      0.318   0.7645  0.27234     C
C95     0.3864   0.7666  0.31245     C
C96     0.1886   0.8546  0.19366     C
C97     0.3695    0.754  0.43758     C
C98     0.2502   0.8002  0.42965     C
C99     0.1645   0.7437  0.44351     C
C100    0.2008   0.6411  0.46568     C
C101    0.3212   0.5946  0.47426     C
C102    0.4049   0.6508  0.46024     C
C103    0.1141   0.5787   0.4803     C
C104    0.5173   0.7685  0.51782     C
C105    0.4138   0.7967  0.55236     C
C106    0.4033   0.7422  0.60595     C
C107    0.4921   0.6565  0.62382     C
C108    0.5968    0.628  0.58964     C
C109    0.6106   0.6845  0.53746     C
C110     0.476   0.5955  0.67983     C
C111    0.6946   0.8917  0.48373     C
C112    0.6482   0.9176  0.53544     C
C113    0.7215    0.928  0.57174     C
C114    0.8439   0.9135  0.55746     C
C115      0.89   0.8913   0.5051     C
C116    0.8171   0.8801  0.46921     C
C117    0.9221   0.9218  0.59755     C
H118   0.13273  0.77275  0.16476     H
H119   0.95612  0.59151  0.48482     H
H120   0.52696  0.47127  0.71826     H
H121   0.07277  0.91845  0.60415     H
H122   0.68792  0.96434  0.37635     H
H123   0.56916  0.95124  0.31251     H
H124   0.35592  0.01052  0.29104     H
H125   0.24023  0.00723  0.22207     H
H126   0.30839  0.70159  0.26765     H
H127    0.4245  0.70501  0.33509     H
H128   0.22574   0.8705  0.41475     H
H129   0.08234  0.77553  0.43774     H
H130   0.34582  0.52453   0.4897     H
H131   0.48703  0.61901  0.46608     H
H132    0.3501  0.85322  0.53944     H
H133   0.33459  0.76416   0.6303     H
H134   0.65873  0.56978  0.60227     H
H135   0.68324  0.66655  0.51475     H
H136   0.56455  0.92831  0.54571     H
H137   0.68813  0.94523  0.60683     H
H138     0.973  0.88388  0.49419     H
H139   0.85051  0.86417  0.43388     H
Cl140  0.30611  0.25073  0.30523    Cl
Cl141   0.0421  0.22963  0.14784    Cl
Cl142   0.3095  0.49343  0.10586    Cl
C143    0.2588   0.3972   0.1508     C
C144    0.3015   0.3659   0.2035     C
C145    0.2575   0.2916   0.2388     C
C146    0.1781   0.2492   0.2229     C
C147    0.1393    0.282   0.1703     C
C148    0.1808   0.3581   0.1336     C
H149   0.35778  0.39429  0.21442     H
H150   0.14991  0.19758  0.24784     H
H151   0.15423   0.3814  0.09733     H
Cl152   0.0606   0.3752  0.40179    Cl
H153   0.05847  0.41229  0.37199     H
Cl154   0.8578  0.52669   0.1732    Cl
Cl155   0.1691  0.54744  0.31037    Cl
C156    0.9233   0.4901   0.2354     C
C157     0.881   0.4199   0.2761     C
C158    0.9352   0.3933   0.3267     C
C159    0.0237   0.4324   0.3375     C
C160    0.0581   0.5002   0.2968     C
C161    0.0117  0.53232  0.24417     C
H162   0.81966  0.39175  0.27005     H
H163   0.03963  0.58034  0.21629     H
Cl164    0.891  0.31561  0.38185    Cl
H165   0.90874  0.34528  0.35523     H
loop_
_geom_bond_atom_site_label_1
_geom_bond_atom_site_label_2
_geom_bond_distance
_geom_bond_site_symmetry_2
_ccdc_geom_bond_type
H56   O80    1.83329       .     S
O80   H56    1.83329       .     S
H120  O17    1.77505       .     S
O17   H120   1.77505       .     S
Cl0   C4     1.74699       .     S
C4    Cl0    1.74699       .     S
Cl1   C6     1.74225       .     S
C6    Cl1    1.74225       .     S
Cl2   C8     1.73921       .     S
C8    Cl2    1.73921       .     S
C3    C4     1.39224       .     S
C4    C3     1.39224       .     S
C3    C8     1.38674       .     S
C8    C3     1.38674       .     S
C3    H9     0.94976       .     S
H9    C3     0.94976       .     S
C4    C5     1.39212       .     S
C5    C4     1.39212       .     S
C5    C6     1.37758       .     S
C6    C5     1.37758       .     S
C5    H10    0.94940       .     S
H10   C5     0.94940       .     S
C6    C7     1.37185       .     S
C7    C6     1.37185       .     S
C7    C8     1.37958       .     S
C8    C7     1.37958       .     S
C7    H11    0.94992       .     S
H11   C7     0.94992       .     S
O12   C32    1.24572       .     S
C32   O12    1.24572       .     S
O13   C32    1.30422       .     S
C32   O13    1.30422       .     S
O13   H54    0.83967   1_655     S
H54   O13    0.83967   1_455     S
O14   C39    1.30646       .     S
C39   O14    1.30646       .     S
O14   H55    0.83997       .     S
H55   O14    0.83997       .     S
O15   C39    1.23403   1_556     S
C39   O15    1.23403   1_554     S
O16   C46    1.30400       .     S
C46   O16    1.30400       .     S
O16   H56    0.83974       .     S
H56   O16    0.83974       .     S
O17   C46    1.24505       .     S
C46   O17    1.24505       .     S
O18   C53    1.23765   1_655     S
C53   O18    1.23765   1_455     S
O19   C53    1.30844   1_655     S
C53   O19    1.30844   1_455     S
O19   H57    0.84027       .     S
H57   O19    0.84027       .     S
C20   C21    1.41518       .     S
C21   C20    1.41518       .     S
C20   C25    1.40505       .     S
C25   C20    1.40505       .     S
C20   C26    1.47815       .     S
C26   C20    1.47815       .     S
C21   C22    1.40514       .     S
C22   C21    1.40514       .     S
C21   C33    1.49603       .     S
C33   C21    1.49603       .     S
C22   C23    1.42261       .     S
C23   C22    1.42261       .     S
C22   C40    1.49352   1_554     S
C40   C22    1.49352   1_556     S
C23   C24    1.40085       .     S
C24   C23    1.40085       .     S
C23   C47    1.47357       .     S
C47   C23    1.47357       .     S
C24   C25    1.37133       .     S
C25   C24    1.37133       .     S
C24   H58    0.95039       .     S
H58   C24    0.95039       .     S
C25   H59    0.95003       .     S
H59   C25    0.95003       .     S
C26   C27    1.40115       .     S
C27   C26    1.40115       .     S
C26   C31    1.40490       .     S
C31   C26    1.40490       .     S
C27   C28    1.39534       .     S
C28   C27    1.39534       .     S
C27   H60    0.95023       .     S
H60   C27    0.95023       .     S
C28   C29    1.39621       .     S
C29   C28    1.39621       .     S
C28   H61    0.94994       .     S
H61   C28    0.94994       .     S
C29   C30    1.38954       .     S
C30   C29    1.38954       .     S
C29   C32    1.47528       .     S
C32   C29    1.47528       .     S
C30   C31    1.38663       .     S
C31   C30    1.38663       .     S
C30   H62    0.94998       .     S
H62   C30    0.94998       .     S
C31   H63    0.94977       .     S
H63   C31    0.94977       .     S
C33   C34    1.39416       .     S
C34   C33    1.39416       .     S
C33   C38    1.39368       .     S
C38   C33    1.39368       .     S
C34   C35    1.39025       .     S
C35   C34    1.39025       .     S
C34   H64    0.94967       .     S
H64   C34    0.94967       .     S
C35   C36    1.38887       .     S
C36   C35    1.38887       .     S
C35   H65    0.94974       .     S
H65   C35    0.94974       .     S
C36   C37    1.39447   1_554     S
C37   C36    1.39447   1_556     S
C36   C39    1.47498       .     S
C39   C36    1.47498       .     S
C37   C38    1.38321   1_556     S
C38   C37    1.38321   1_554     S
C37   H66    0.95007       .     S
H66   C37    0.95007       .     S
C38   H67    0.94961   1_554     S
H67   C38    0.94961   1_556     S
C40   C41    1.39712       .     S
C41   C40    1.39712       .     S
C40   C45    1.38782       .     S
C45   C40    1.38782       .     S
C41   C42    1.38418       .     S
C42   C41    1.38418       .     S
C41   H68    0.95032   1_556     S
H68   C41    0.95032   1_554     S
C42   C43    1.40491       .     S
C43   C42    1.40491       .     S
C42   H69    0.95029       .     S
H69   C42    0.95029       .     S
C43   C44    1.38135       .     S
C44   C43    1.38135       .     S
C43   C46    1.48846       .     S
C46   C43    1.48846       .     S
C44   C45    1.39372       .     S
C45   C44    1.39372       .     S
C44   H70    0.94990       .     S
H70   C44    0.94990       .     S
C45   H71    0.95024       .     S
H71   C45    0.95024       .     S
C47   C48    1.40431   1_554     S
C48   C47    1.40431   1_556     S
C47   C52    1.40433       .     S
C52   C47    1.40433       .     S
C48   C49    1.37714       .     S
C49   C48    1.37714       .     S
C48   H72    0.95065       .     S
H72   C48    0.95065       .     S
C49   C50    1.39960       .     S
C50   C49    1.39960       .     S
C49   H73    0.94998       .     S
H73   C49    0.94998       .     S
C50   C51    1.38366       .     S
C51   C50    1.38366       .     S
C50   C53    1.47981       .     S
C53   C50    1.47981       .     S
C51   C52    1.37914   1_556     S
C52   C51    1.37914   1_554     S
C51   H74    0.95018   1_545     S
H74   C51    0.95018   1_565     S
C52   H75    0.94967   1_545     S
H75   C52    0.94967   1_565     S
O76   C96    1.23763       .     S
C96   O76    1.23763       .     S
O77   C96    1.30423       .     S
C96   O77    1.30423       .     S
O77   H118   0.84026       .     S
H118  O77    0.84026       .     S
O78   C103   1.22215       .     S
C103  O78    1.22215       .     S
O79   C103   1.32298       .     S
C103  O79    1.32298       .     S
O79   H119   0.84020   1_455     S
H119  O79    0.84020   1_655     S
O80   C110   1.23839       .     S
C110  O80    1.23839       .     S
O81   C110   1.30915       .     S
C110  O81    1.30915       .     S
O81   H120   0.84005       .     S
H120  O81    0.84005       .     S
O82   C117   1.30540   1_455     S
C117  O82    1.30540   1_655     S
O82   H121   0.83948       .     S
H121  O82    0.83948       .     S
O83   C117   1.22642       .     S
C117  O83    1.22642       .     S
C84   C85    1.41207       .     S
C85   C84    1.41207       .     S
C84   C89    1.38885       .     S
C89   C84    1.38885       .     S
C84   C90    1.49654       .     S
C90   C84    1.49654       .     S
C85   C86    1.41175       .     S
C86   C85    1.41175       .     S
C85   C97    1.49835       .     S
C97   C85    1.49835       .     S
C86   C87    1.41425       .     S
C87   C86    1.41425       .     S
C86   C104   1.49051       .     S
C104  C86    1.49051       .     S
C87   C88    1.40667       .     S
C88   C87    1.40667       .     S
C87   C111   1.48764       .     S
C111  C87    1.48764       .     S
C88   C89    1.37042       .     S
C89   C88    1.37042       .     S
C88   H122   0.95009       .     S
H122  C88    0.95009       .     S
C89   H123   0.94986       .     S
H123  C89    0.94986       .     S
C90   C91    1.40194       .     S
C91   C90    1.40194       .     S
C90   C95    1.39293       .     S
C95   C90    1.39293       .     S
C91   C92    1.38395       .     S
C92   C91    1.38395       .     S
C91   H124   0.94971   1_565     S
H124  C91    0.94971   1_545     S
C92   C93    1.39575       .     S
C93   C92    1.39575       .     S
C92   H125   0.94982   1_565     S
H125  C92    0.94982   1_545     S
C93   C94    1.40081       .     S
C94   C93    1.40081       .     S
C93   C96    1.47553       .     S
C96   C93    1.47553       .     S
C94   C95    1.36420       .     S
C95   C94    1.36420       .     S
C94   H126   0.94981       .     S
H126  C94    0.94981       .     S
C95   H127   0.94961       .     S
H127  C95    0.94961       .     S
C97   C98    1.37798       .     S
C98   C97    1.37798       .     S
C97   C102   1.39803       .     S
C102  C97    1.39803       .     S
C98   C99    1.40775       .     S
C99   C98    1.40775       .     S
C98   H128   0.94966       .     S
H128  C98    0.94966       .     S
C99   C100   1.38870       .     S
C100  C99    1.38870       .     S
C99   H129   0.95045       .     S
H129  C99    0.95045       .     S
C100  C101   1.39310       .     S
C101  C100   1.39310       .     S
C100  C103   1.47763       .     S
C103  C100   1.47763       .     S
C101  C102   1.38546       .     S
C102  C101   1.38546       .     S
C101  H130   0.94994       .     S
H130  C101   0.94994       .     S
C102  H131   0.95038       .     S
H131  C102   0.95038       .     S
C104  C105   1.38801       .     S
C105  C104   1.38801       .     S
C104  C109   1.40624       .     S
C109  C104   1.40624       .     S
C105  C106   1.39250       .     S
C106  C105   1.39250       .     S
C105  H132   0.95051       .     S
H132  C105   0.95051       .     S
C106  C107   1.37870       .     S
C107  C106   1.37870       .     S
C106  H133   0.95011       .     S
H133  C106   0.95011       .     S
C107  C108   1.39369       .     S
C108  C107   1.39369       .     S
C107  C110   1.48596       .     S
C110  C107   1.48596       .     S
C108  C109   1.38026       .     S
C109  C108   1.38026       .     S
C108  H134   0.94998       .     S
H134  C108   0.94998       .     S
C109  H135   0.94987       .     S
H135  C109   0.94987       .     S
C111  C112   1.39630       .     S
C112  C111   1.39630       .     S
C111  C116   1.39457       .     S
C116  C111   1.39457       .     S
C112  C113   1.37507       .     S
C113  C112   1.37507       .     S
C112  H136   0.94971       .     S
H136  C112   0.94971       .     S
C113  C114   1.38825       .     S
C114  C113   1.38825       .     S
C113  H137   0.95029       .     S
H137  C113   0.95029       .     S
C114  C115   1.39368       .     S
C115  C114   1.39368       .     S
C114  C117   1.47692       .     S
C117  C114   1.47692       .     S
C115  C116   1.36865       .     S
C116  C115   1.36865       .     S
C115  H138   0.94973       .     S
H138  C115   0.94973       .     S
C116  H139   0.95001       .     S
H139  C116   0.95001       .     S
Cl140 C145   1.73887       .     S
C145  Cl140  1.73887       .     S
Cl141 C147   1.71501       .     S
C147  Cl141  1.71501       .     S
Cl142 C143   1.74487       .     S
C143  Cl142  1.74487       .     S
C143  C144   1.39725       .     S
C144  C143   1.39725       .     S
C143  C148   1.33845       .     S
C148  C143   1.33845       .     S
C144  C145   1.38102       .     S
C145  C144   1.38102       .     S
C144  H149   0.94969       .     S
H149  C144   0.94969       .     S
C145  C146   1.36786       .     S
C146  C145   1.36786       .     S
C146  C147   1.37841       .     S
C147  C146   1.37841       .     S
C146  H150   0.95044       .     S
H150  C146   0.95044       .     S
C147  C148   1.40012       .     S
C148  C147   1.40012       .     S
C148  H151   0.95017       .     S
H151  C148   0.95017       .     S
Cl152 H153   0.80677       .     S
H153  Cl152  0.80677       .     S
Cl152 C159   1.67700       .     S
C159  Cl152  1.67700       .     S
H153  C159   0.94869       .     S
C159  H153   0.94869       .     S
Cl154 C156   1.72622       .     S
C156  Cl154  1.72622       .     S
Cl155 C160   1.70865       .     S
C160  Cl155  1.70865       .     S
C156  C157   1.39549       .     S
C157  C156   1.39549       .     S
C156  C161   1.38470   1_655     S
C161  C156   1.38470   1_455     S
C157  C158   1.41088       .     S
C158  C157   1.41088       .     S
C157  H162   0.94985       .     S
H162  C157   0.94985       .     S
C158  C159   1.37512   1_655     S
C159  C158   1.37512   1_455     S
C158  Cl164  1.67744       .     S
Cl164 C158   1.67744       .     S
C158  H165   0.95108       .     S
H165  C158   0.95108       .     S
C159  C160   1.33441       .     S
C160  C159   1.33441       .     S
C160  C161   1.41340       .     S
C161  C160   1.41340       .     S
C161  H163   0.94982       .     S
H163  C161   0.94982       .     S
Cl164 H165   0.73879       .     S
H165  Cl164  0.73879       .     S
O80   H56    1.83329       .     S
H56   O80    1.83329       .     S
O17   H120   1.77505       .     S
H120  O17    1.77505       .     S
C4    Cl0    1.74699       .     S
Cl0   C4     1.74699       .     S
C6    Cl1    1.74225       .     S
Cl1   C6     1.74225       .     S
C8    Cl2    1.73921       .     S
Cl2   C8     1.73921       .     S
C4    C3     1.39224       .     S
C3    C4     1.39224       .     S
C8    C3     1.38674       .     S
C3    C8     1.38674       .     S
H9    C3     0.94976       .     S
C3    H9     0.94976       .     S
C5    C4     1.39212       .     S
C4    C5     1.39212       .     S
C6    C5     1.37758       .     S
C5    C6     1.37758       .     S
H10   C5     0.94940       .     S
C5    H10    0.94940       .     S
C7    C6     1.37185       .     S
C6    C7     1.37185       .     S
C8    C7     1.37958       .     S
C7    C8     1.37958       .     S
H11   C7     0.94992       .     S
C7    H11    0.94992       .     S
C32   O12    1.24572       .     S
O12   C32    1.24572       .     S
C32   O13    1.30422       .     S
O13   C32    1.30422       .     S
H54   O13    0.83967   1_455     S
O13   H54    0.83967   1_655     S
C39   O14    1.30646       .     S
O14   C39    1.30646       .     S
H55   O14    0.83997       .     S
O14   H55    0.83997       .     S
C39   O15    1.23403   1_554     S
O15   C39    1.23403   1_556     S
C46   O16    1.30400       .     S
O16   C46    1.30400       .     S
H56   O16    0.83974       .     S
O16   H56    0.83974       .     S
C46   O17    1.24505       .     S
O17   C46    1.24505       .     S
C53   O18    1.23765   1_455     S
O18   C53    1.23765   1_655     S
C53   O19    1.30844   1_455     S
O19   C53    1.30844   1_655     S
H57   O19    0.84027       .     S
O19   H57    0.84027       .     S
C21   C20    1.41518       .     S
C20   C21    1.41518       .     S
C25   C20    1.40505       .     S
C20   C25    1.40505       .     S
C26   C20    1.47815       .     S
C20   C26    1.47815       .     S
C22   C21    1.40514       .     S
C21   C22    1.40514       .     S
C33   C21    1.49603       .     S
C21   C33    1.49603       .     S
C23   C22    1.42261       .     S
C22   C23    1.42261       .     S
C40   C22    1.49352   1_556     S
C22   C40    1.49352   1_554     S
C24   C23    1.40085       .     S
C23   C24    1.40085       .     S
C47   C23    1.47357       .     S
C23   C47    1.47357       .     S
C25   C24    1.37133       .     S
C24   C25    1.37133       .     S
H58   C24    0.95039       .     S
C24   H58    0.95039       .     S
H59   C25    0.95003       .     S
C25   H59    0.95003       .     S
C27   C26    1.40115       .     S
C26   C27    1.40115       .     S
C31   C26    1.40490       .     S
C26   C31    1.40490       .     S
C28   C27    1.39534       .     S
C27   C28    1.39534       .     S
H60   C27    0.95023       .     S
C27   H60    0.95023       .     S
C29   C28    1.39621       .     S
C28   C29    1.39621       .     S
H61   C28    0.94994       .     S
C28   H61    0.94994       .     S
C30   C29    1.38954       .     S
C29   C30    1.38954       .     S
C32   C29    1.47528       .     S
C29   C32    1.47528       .     S
C31   C30    1.38663       .     S
C30   C31    1.38663       .     S
H62   C30    0.94998       .     S
C30   H62    0.94998       .     S
H63   C31    0.94977       .     S
C31   H63    0.94977       .     S
C34   C33    1.39416       .     S
C33   C34    1.39416       .     S
C38   C33    1.39368       .     S
C33   C38    1.39368       .     S
C35   C34    1.39025       .     S
C34   C35    1.39025       .     S
H64   C34    0.94967       .     S
C34   H64    0.94967       .     S
C36   C35    1.38887       .     S
C35   C36    1.38887       .     S
H65   C35    0.94974       .     S
C35   H65    0.94974       .     S
C37   C36    1.39447   1_556     S
C36   C37    1.39447   1_554     S
C39   C36    1.47498       .     S
C36   C39    1.47498       .     S
C38   C37    1.38321   1_554     S
C37   C38    1.38321   1_556     S
H66   C37    0.95007       .     S
C37   H66    0.95007       .     S
H67   C38    0.94961   1_556     S
C38   H67    0.94961   1_554     S
C41   C40    1.39712       .     S
C40   C41    1.39712       .     S
C45   C40    1.38782       .     S
C40   C45    1.38782       .     S
C42   C41    1.38418       .     S
C41   C42    1.38418       .     S
H68   C41    0.95032   1_554     S
C41   H68    0.95032   1_556     S
C43   C42    1.40491       .     S
C42   C43    1.40491       .     S
H69   C42    0.95029       .     S
C42   H69    0.95029       .     S
C44   C43    1.38135       .     S
C43   C44    1.38135       .     S
C46   C43    1.48846       .     S
C43   C46    1.48846       .     S
C45   C44    1.39372       .     S
C44   C45    1.39372       .     S
H70   C44    0.94990       .     S
C44   H70    0.94990       .     S
H71   C45    0.95024       .     S
C45   H71    0.95024       .     S
C48   C47    1.40431   1_556     S
C47   C48    1.40431   1_554     S
C52   C47    1.40433       .     S
C47   C52    1.40433       .     S
C49   C48    1.37714       .     S
C48   C49    1.37714       .     S
H72   C48    0.95065       .     S
C48   H72    0.95065       .     S
C50   C49    1.39960       .     S
C49   C50    1.39960       .     S
H73   C49    0.94998       .     S
C49   H73    0.94998       .     S
C51   C50    1.38366       .     S
C50   C51    1.38366       .     S
C53   C50    1.47981       .     S
C50   C53    1.47981       .     S
C52   C51    1.37914   1_554     S
C51   C52    1.37914   1_556     S
H74   C51    0.95018   1_565     S
C51   H74    0.95018   1_545     S
H75   C52    0.94967   1_565     S
C52   H75    0.94967   1_545     S
C96   O76    1.23763       .     S
O76   C96    1.23763       .     S
C96   O77    1.30423       .     S
O77   C96    1.30423       .     S
H118  O77    0.84026       .     S
O77   H118   0.84026       .     S
C103  O78    1.22215       .     S
O78   C103   1.22215       .     S
C103  O79    1.32298       .     S
O79   C103   1.32298       .     S
H119  O79    0.84020   1_655     S
O79   H119   0.84020   1_455     S
C110  O80    1.23839       .     S
O80   C110   1.23839       .     S
C110  O81    1.30915       .     S
O81   C110   1.30915       .     S
H120  O81    0.84005       .     S
O81   H120   0.84005       .     S
C117  O82    1.30540   1_655     S
O82   C117   1.30540   1_455     S
H121  O82    0.83948       .     S
O82   H121   0.83948       .     S
C117  O83    1.22642       .     S
O83   C117   1.22642       .     S
C85   C84    1.41207       .     S
C84   C85    1.41207       .     S
C89   C84    1.38885       .     S
C84   C89    1.38885       .     S
C90   C84    1.49654       .     S
C84   C90    1.49654       .     S
C86   C85    1.41175       .     S
C85   C86    1.41175       .     S
C97   C85    1.49835       .     S
C85   C97    1.49835       .     S
C87   C86    1.41425       .     S
C86   C87    1.41425       .     S
C104  C86    1.49051       .     S
C86   C104   1.49051       .     S
C88   C87    1.40667       .     S
C87   C88    1.40667       .     S
C111  C87    1.48764       .     S
C87   C111   1.48764       .     S
C89   C88    1.37042       .     S
C88   C89    1.37042       .     S
H122  C88    0.95009       .     S
C88   H122   0.95009       .     S
H123  C89    0.94986       .     S
C89   H123   0.94986       .     S
C91   C90    1.40194       .     S
C90   C91    1.40194       .     S
C95   C90    1.39293       .     S
C90   C95    1.39293       .     S
C92   C91    1.38395       .     S
C91   C92    1.38395       .     S
H124  C91    0.94971   1_545     S
C91   H124   0.94971   1_565     S
C93   C92    1.39575       .     S
C92   C93    1.39575       .     S
H125  C92    0.94982   1_545     S
C92   H125   0.94982   1_565     S
C94   C93    1.40081       .     S
C93   C94    1.40081       .     S
C96   C93    1.47553       .     S
C93   C96    1.47553       .     S
C95   C94    1.36420       .     S
C94   C95    1.36420       .     S
H126  C94    0.94981       .     S
C94   H126   0.94981       .     S
H127  C95    0.94961       .     S
C95   H127   0.94961       .     S
C98   C97    1.37798       .     S
C97   C98    1.37798       .     S
C102  C97    1.39803       .     S
C97   C102   1.39803       .     S
C99   C98    1.40775       .     S
C98   C99    1.40775       .     S
H128  C98    0.94966       .     S
C98   H128   0.94966       .     S
C100  C99    1.38870       .     S
C99   C100   1.38870       .     S
H129  C99    0.95045       .     S
C99   H129   0.95045       .     S
C101  C100   1.39310       .     S
C100  C101   1.39310       .     S
C103  C100   1.47763       .     S
C100  C103   1.47763       .     S
C102  C101   1.38546       .     S
C101  C102   1.38546       .     S
H130  C101   0.94994       .     S
C101  H130   0.94994       .     S
H131  C102   0.95038       .     S
C102  H131   0.95038       .     S
C105  C104   1.38801       .     S
C104  C105   1.38801       .     S
C109  C104   1.40624       .     S
C104  C109   1.40624       .     S
C106  C105   1.39250       .     S
C105  C106   1.39250       .     S
H132  C105   0.95051       .     S
C105  H132   0.95051       .     S
C107  C106   1.37870       .     S
C106  C107   1.37870       .     S
H133  C106   0.95011       .     S
C106  H133   0.95011       .     S
C108  C107   1.39369       .     S
C107  C108   1.39369       .     S
C110  C107   1.48596       .     S
C107  C110   1.48596       .     S
C109  C108   1.38026       .     S
C108  C109   1.38026       .     S
H134  C108   0.94998       .     S
C108  H134   0.94998       .     S
H135  C109   0.94987       .     S
C109  H135   0.94987       .     S
C112  C111   1.39630       .     S
C111  C112   1.39630       .     S
C116  C111   1.39457       .     S
C111  C116   1.39457       .     S
C113  C112   1.37507       .     S
C112  C113   1.37507       .     S
H136  C112   0.94971       .     S
C112  H136   0.94971       .     S
C114  C113   1.38825       .     S
C113  C114   1.38825       .     S
H137  C113   0.95029       .     S
C113  H137   0.95029       .     S
C115  C114   1.39368       .     S
C114  C115   1.39368       .     S
C117  C114   1.47692       .     S
C114  C117   1.47692       .     S
C116  C115   1.36865       .     S
C115  C116   1.36865       .     S
H138  C115   0.94973       .     S
C115  H138   0.94973       .     S
H139  C116   0.95001       .     S
C116  H139   0.95001       .     S
C145  Cl140  1.73887       .     S
Cl140 C145   1.73887       .     S
C147  Cl141  1.71501       .     S
Cl141 C147   1.71501       .     S
C143  Cl142  1.74487       .     S
Cl142 C143   1.74487       .     S
C144  C143   1.39725       .     S
C143  C144   1.39725       .     S
C148  C143   1.33845       .     S
C143  C148   1.33845       .     S
C145  C144   1.38102       .     S
C144  C145   1.38102       .     S
H149  C144   0.94969       .     S
C144  H149   0.94969       .     S
C146  C145   1.36786       .     S
C145  C146   1.36786       .     S
C147  C146   1.37841       .     S
C146  C147   1.37841       .     S
H150  C146   0.95044       .     S
C146  H150   0.95044       .     S
C148  C147   1.40012       .     S
C147  C148   1.40012       .     S
H151  C148   0.95017       .     S
C148  H151   0.95017       .     S
H153  Cl152  0.80677       .     S
Cl152 H153   0.80677       .     S
C159  Cl152  1.67700       .     S
Cl152 C159   1.67700       .     S
C159  H153   0.94869       .     S
H153  C159   0.94869       .     S
C156  Cl154  1.72622       .     S
Cl154 C156   1.72622       .     S
C160  Cl155  1.70865       .     S
Cl155 C160   1.70865       .     S
C157  C156   1.39549       .     S
C156  C157   1.39549       .     S
C161  C156   1.38470   1_455     S
C156  C161   1.38470   1_655     S
C158  C157   1.41088       .     S
C157  C158   1.41088       .     S
H162  C157   0.94985       .     S
C157  H162   0.94985       .     S
C159  C158   1.37512   1_455     S
C158  C159   1.37512   1_655     S
Cl164 C158   1.67744       .     S
C158  Cl164  1.67744       .     S
H165  C158   0.95108       .     S
C158  H165   0.95108       .     S
C160  C159   1.33441       .     S
C159  C160   1.33441       .     S
C161  C160   1.41340       .     S
C160  C161   1.41340       .     S
H163  C161   0.94982       .     S
C161  H163   0.94982       .     S
H165  Cl164  0.73879       .     S
Cl164 H165   0.73879       .     S
