data_I
_chemical_name_common  '/data/user2/wty/HOF/MOFDiff/mofdiff/data/test/150-hof-fju-4'
_cell_length_a  9.70080
_cell_length_b 17.10780
_cell_length_c 26.19670
_cell_angle_alpha 90.00000
_cell_angle_beta  90.00000
_cell_angle_gamma 90.00000
_space_group_name_H-M_alt      'P 1'


loop_
_space_group_symop_operation_xyz
  'x, y, z' 

loop_
_atom_site_label
_atom_site_fract_x
_atom_site_fract_y
_atom_site_fract_z
_atom_site_type_symbol
C0      0.1334   0.8757   0.5714     C
H1      0.1412   0.9216   0.5526     H
C2      0.0951   0.8802   0.6219     C
C3      0.1614   0.6551    0.494     C
C4      0.1156   0.6479   0.3869     C
C5      0.1507    0.734   0.5746     C
C6      0.2512   0.5987   0.5739     C
C7      0.4031   0.5978   0.7295     C
C8      0.4417   0.6562   0.6952     C
H9      0.5024   0.6951   0.7056     H
C10     0.0617   0.9541   0.6481     C
C11     0.1606    0.805   0.5479     C
H12      0.186   0.8044   0.5137     H
C13     0.2799   0.5228   0.5479     C
C14     0.1785   0.4804   0.5236     C
H15      0.088   0.4983   0.5241     H
C16     0.1899   0.6584   0.5498     C
C17     0.3457   0.3821   0.4966     C
C18     0.3907    0.657   0.6455     C
H19     0.4176    0.697   0.6236     H
C20     0.0108   0.0188   0.6207     C
H21     0.0002   0.0148   0.5856     H
C22     0.2102    0.411   0.4984     C
H23     0.1401   0.3832   0.4824     H
C24     0.0299   0.6639   0.4734     C
H25     0.9558   0.6726   0.4951     H
C26     0.0952   0.6491   0.3308     C
C27     0.2697   0.6417   0.4592     C
H28     0.3589   0.6349   0.4715     H
C29     0.0817   0.8083   0.6488     C
H30     0.0535    0.809   0.6827     H
C31     0.3022   0.6008   0.6276     C
C32     0.3133   0.5392   0.7111     C
H33     0.2858   0.4989   0.7326     H
C34     0.1092   0.7385    0.626     C
H35     0.1005   0.6927   0.6448     H
C36     0.3812   0.3124   0.4655     C
C37     0.2466   0.6384   0.4076     C
H38     0.3207   0.6296   0.3858     H
C39     0.3868   0.5612   0.8223     C
H40     0.2985   0.5418   0.8169     H
C41     0.5737   0.5875    0.879     C
C42     0.0071   0.6601   0.4214     C
H43     0.9178   0.6657    0.409     H
C44     0.4136   0.4942   0.5478     C
H45     0.4823   0.5216   0.5649     H
C46     0.9907   0.0936   0.6967     C
C47     0.4615   0.5941   0.7808     C
C48     0.2659   0.5413   0.6614     C
H49     0.2078   0.5017   0.6501     H
C50     0.5172   0.2885     0.46     C
H51     0.5856   0.3127   0.4792     H
C52     0.2022   0.6718   0.2981     C
H53     0.2879   0.6831   0.3122     H
C54      0.454   0.1919   0.3993     C
C55     0.4432   0.5578   0.8699     C
H56     0.3936   0.5353   0.8964     H
C57     0.0577   0.6622   0.2247     C
C58      0.968    0.632   0.3085     C
H59     0.8952   0.6157    0.329     H
C60     0.9764   0.0876   0.6445     C
H61     0.9438   0.1298   0.6256     H
C62     0.4465   0.4251   0.5224     C
H63     0.5371   0.4073   0.5226     H
N64     0.6856   0.5831   0.9692     N
C65     0.5529   0.2292   0.4264     C
H66     0.6449   0.2151   0.4224     H
C67     0.6502   0.6184    0.839     C
H68     0.7391   0.6368   0.8447     H
C69     0.5934   0.6215   0.7912     C
H70     0.6451   0.6428   0.7647     H
C71     0.0732    0.963    0.701     C
H72     0.1055   0.9212   0.7203     H
C73     0.0386    0.031   0.7253     C
H74     0.0472   0.0353   0.7605     H
C75     0.4868   0.1314    0.362     C
N76     0.5102   0.0854   0.3312     N
C77     0.6337   0.5841   0.9293     C
N78     0.0236   0.6866   0.1291     N
C79     0.9485   0.6389   0.2559     C
H80     0.8628   0.6279   0.2417     H
C81     0.1863   0.6781    0.246     C
H82       0.26   0.6927   0.2254     H
C83     0.3148   0.2113   0.4069     C
H84     0.2458   0.1844   0.3896     H
C85      0.282   0.2704     0.44     C
H86     0.1897   0.2825   0.4454     H
C87     0.9599   0.1682   0.7211     C
C88     0.0378   0.6746   0.1713     C
N89     0.9404   0.2282   0.7381     N
loop_
_geom_bond_atom_site_label_1
_geom_bond_atom_site_label_2
_geom_bond_distance
_geom_bond_site_symmetry_2
_ccdc_geom_bond_type
C0    H1     0.93000       .     S
H1    C0     0.93000       .     S
C0    C2     1.37627       .     S
C2    C0     1.37627       .     S
C0    C11    1.38259       .     S
C11   C0     1.38259       .     S
C2    C10    1.47459       .     S
C10   C2     1.47459       .     S
C2    C29    1.42356       .     S
C29   C2     1.42356       .     S
C3    C16    1.48876       .     S
C16   C3     1.48876       .     S
C3    C24    1.39326       .     S
C24   C3     1.39326       .     S
C3    C27    1.40975       .     S
C27   C3     1.40975       .     S
C4    C26    1.48304       .     S
C26   C4     1.48304       .     S
C4    C37    1.39119       .     S
C37   C4     1.39119       .     S
C4    C42    1.40293       .     S
C42   C4     1.40293       .     S
C5    C11    1.40493       .     S
C11   C5     1.40493       .     S
C5    C16    1.49648       .     S
C16   C5     1.49648       .     S
C5    C34    1.40751       .     S
C34   C5     1.40751       .     S
C6    C13    1.49248       .     S
C13   C6     1.49248       .     S
C6    C16    1.33990       .     S
C16   C6     1.33990       .     S
C6    C31    1.49166       .     S
C31   C6     1.49166       .     S
C7    C8     1.39492       .     S
C8    C7     1.39492       .     S
C7    C32    1.41289       .     S
C32   C7     1.41289       .     S
C7    C47    1.45980       .     S
C47   C7     1.45980       .     S
C8    H9     0.92943       .     S
H9    C8     0.92943       .     S
C8    C18    1.39287       .     S
C18   C8     1.39287       .     S
C10   C20    1.40862   1_565     S
C20   C10    1.40862   1_545     S
C10   C71    1.39860       .     S
C71   C10    1.39860       .     S
C11   H12    0.92925       .     S
H12   C11    0.92925       .     S
C13   C14    1.37804       .     S
C14   C13    1.37804       .     S
C13   C44    1.38622       .     S
C44   C13    1.38622       .     S
C14   H15    0.92989       .     S
H15   C14    0.92989       .     S
C14   C22    1.39284       .     S
C22   C14    1.39284       .     S
C17   C22    1.40516       .     S
C22   C17    1.40516       .     S
C17   C36    1.48466       .     S
C36   C17    1.48466       .     S
C17   C62    1.39791       .     S
C62   C17    1.39791       .     S
C18   H19    0.93033       .     S
H19   C18    0.93033       .     S
C18   C31    1.37162       .     S
C31   C18    1.37162       .     S
C20   H21    0.92776       .     S
H21   C20    0.92776       .     S
C20   C60    1.37312   1_455     S
C60   C20    1.37312   1_655     S
C22   H23    0.92968       .     S
H23   C22    0.92968       .     S
C24   H25    0.92845   1_455     S
H25   C24    0.92845   1_655     S
C24   C42    1.38160       .     S
C42   C24    1.38160       .     S
C26   C52    1.40073       .     S
C52   C26    1.40073       .     S
C26   C58    1.39623   1_455     S
C58   C26    1.39623   1_655     S
C27   H28    0.93066       .     S
H28   C27    0.93066       .     S
C27   C37    1.37136       .     S
C37   C27    1.37136       .     S
C29   H30    0.92932       .     S
H30   C29    0.92932       .     S
C29   C34    1.36156       .     S
C34   C29    1.36156       .     S
C31   C48    1.39433       .     S
C48   C31    1.39433       .     S
C32   H33    0.92937       .     S
H33   C32    0.92937       .     S
C32   C48    1.38125       .     S
C48   C32    1.38125       .     S
C34   H35    0.92931       .     S
H35   C34    0.92931       .     S
C36   C50    1.38871       .     S
C50   C36    1.38871       .     S
C36   C85    1.37426       .     S
C85   C36    1.37426       .     S
C37   H38    0.93033       .     S
H38   C37    0.93033       .     S
C39   H40    0.92946       .     S
H40   C39    0.92946       .     S
C39   C47    1.42262       .     S
C47   C39    1.42262       .     S
C39   C55    1.36295       .     S
C55   C39    1.36295       .     S
C41   C55    1.38479       .     S
C55   C41    1.38479       .     S
C41   C67    1.38860       .     S
C67   C41    1.38860       .     S
C41   C77    1.44169       .     S
C77   C41    1.44169       .     S
C42   H43    0.93013   1_455     S
H43   C42    0.93013   1_655     S
C44   H45    0.92981       .     S
H45   C44    0.92981       .     S
C44   C62    1.39359       .     S
C62   C44    1.39359       .     S
C46   C60    1.37831       .     S
C60   C46    1.37831       .     S
C46   C73    1.38715   1_655     S
C73   C46    1.38715   1_455     S
C46   C87    1.45830       .     S
C87   C46    1.45830       .     S
C47   C69    1.38966       .     S
C69   C47    1.38966       .     S
C48   H49    0.92965       .     S
H49   C48    0.92965       .     S
C50   H51    0.92987       .     S
H51   C50    0.92987       .     S
C50   C65    1.38705       .     S
C65   C50    1.38705       .     S
C52   H53    0.93004       .     S
H53   C52    0.93004       .     S
C52   C81    1.37776       .     S
C81   C52    1.37776       .     S
C54   C65    1.35339       .     S
C65   C54    1.35339       .     S
C54   C75    1.45853       .     S
C75   C54    1.45853       .     S
C54   C83    1.40472       .     S
C83   C54    1.40472       .     S
C55   H56    0.92823       .     S
H56   C55    0.92823       .     S
C57   C79    1.39610   1_455     S
C79   C57    1.39610   1_655     S
C57   C81    1.39343       .     S
C81   C57    1.39343       .     S
C57   C88    1.42801       .     S
C88   C57    1.42801       .     S
C58   H59    0.93001       .     S
H59   C58    0.93001       .     S
C58   C79    1.39587       .     S
C79   C58    1.39587       .     S
C60   H61    0.93079       .     S
H61   C60    0.93079       .     S
C62   H63    0.93017       .     S
H63   C62    0.93017       .     S
N64   C77    1.16031       .     S
C77   N64    1.16031       .     S
C65   H66    0.93042       .     S
H66   C65    0.93042       .     S
C67   H68    0.93012       .     S
H68   C67    0.93012       .     S
C67   C69    1.36910       .     S
C69   C67    1.36910       .     S
C69   H70    0.93072       .     S
H70   C69    0.93072       .     S
C71   H72    0.93015       .     S
H72   C71    0.93015       .     S
C71   C73    1.36793   1_565     S
C73   C71    1.36793   1_545     S
C73   H74    0.92881       .     S
H74   C73    0.92881       .     S
C75   N76    1.14972       .     S
N76   C75    1.14972       .     S
N78   C88    1.13281       .     S
C88   N78    1.13281       .     S
C79   H80    0.93003       .     S
H80   C79    0.93003       .     S
C81   H82    0.92993       .     S
H82   C81    0.92993       .     S
C83   H84    0.93017       .     S
H84   C83    0.93017       .     S
C83   C85    1.36945       .     S
C85   C83    1.36945       .     S
C85   H86    0.92983       .     S
H86   C85    0.92983       .     S
C87   N89    1.13479       .     S
N89   C87    1.13479       .     S
H1    C0     0.93000       .     S
C0    H1     0.93000       .     S
C2    C0     1.37627       .     S
C0    C2     1.37627       .     S
C11   C0     1.38259       .     S
C0    C11    1.38259       .     S
C10   C2     1.47459       .     S
C2    C10    1.47459       .     S
C29   C2     1.42356       .     S
C2    C29    1.42356       .     S
C16   C3     1.48876       .     S
C3    C16    1.48876       .     S
C24   C3     1.39326       .     S
C3    C24    1.39326       .     S
C27   C3     1.40975       .     S
C3    C27    1.40975       .     S
C26   C4     1.48304       .     S
C4    C26    1.48304       .     S
C37   C4     1.39119       .     S
C4    C37    1.39119       .     S
C42   C4     1.40293       .     S
C4    C42    1.40293       .     S
C11   C5     1.40493       .     S
C5    C11    1.40493       .     S
C16   C5     1.49648       .     S
C5    C16    1.49648       .     S
C34   C5     1.40751       .     S
C5    C34    1.40751       .     S
C13   C6     1.49248       .     S
C6    C13    1.49248       .     S
C16   C6     1.33990       .     S
C6    C16    1.33990       .     S
C31   C6     1.49166       .     S
C6    C31    1.49166       .     S
C8    C7     1.39492       .     S
C7    C8     1.39492       .     S
C32   C7     1.41289       .     S
C7    C32    1.41289       .     S
C47   C7     1.45980       .     S
C7    C47    1.45980       .     S
H9    C8     0.92943       .     S
C8    H9     0.92943       .     S
C18   C8     1.39287       .     S
C8    C18    1.39287       .     S
C20   C10    1.40862   1_545     S
C10   C20    1.40862   1_565     S
C71   C10    1.39860       .     S
C10   C71    1.39860       .     S
H12   C11    0.92925       .     S
C11   H12    0.92925       .     S
C14   C13    1.37804       .     S
C13   C14    1.37804       .     S
C44   C13    1.38622       .     S
C13   C44    1.38622       .     S
H15   C14    0.92989       .     S
C14   H15    0.92989       .     S
C22   C14    1.39284       .     S
C14   C22    1.39284       .     S
C22   C17    1.40516       .     S
C17   C22    1.40516       .     S
C36   C17    1.48466       .     S
C17   C36    1.48466       .     S
C62   C17    1.39791       .     S
C17   C62    1.39791       .     S
H19   C18    0.93033       .     S
C18   H19    0.93033       .     S
C31   C18    1.37162       .     S
C18   C31    1.37162       .     S
H21   C20    0.92776       .     S
C20   H21    0.92776       .     S
C60   C20    1.37312   1_655     S
C20   C60    1.37312   1_455     S
H23   C22    0.92968       .     S
C22   H23    0.92968       .     S
H25   C24    0.92845   1_655     S
C24   H25    0.92845   1_455     S
C42   C24    1.38160       .     S
C24   C42    1.38160       .     S
C52   C26    1.40073       .     S
C26   C52    1.40073       .     S
C58   C26    1.39623   1_655     S
C26   C58    1.39623   1_455     S
H28   C27    0.93066       .     S
C27   H28    0.93066       .     S
C37   C27    1.37136       .     S
C27   C37    1.37136       .     S
H30   C29    0.92932       .     S
C29   H30    0.92932       .     S
C34   C29    1.36156       .     S
C29   C34    1.36156       .     S
C48   C31    1.39433       .     S
C31   C48    1.39433       .     S
H33   C32    0.92937       .     S
C32   H33    0.92937       .     S
C48   C32    1.38125       .     S
C32   C48    1.38125       .     S
H35   C34    0.92931       .     S
C34   H35    0.92931       .     S
C50   C36    1.38871       .     S
C36   C50    1.38871       .     S
C85   C36    1.37426       .     S
C36   C85    1.37426       .     S
H38   C37    0.93033       .     S
C37   H38    0.93033       .     S
H40   C39    0.92946       .     S
C39   H40    0.92946       .     S
C47   C39    1.42262       .     S
C39   C47    1.42262       .     S
C55   C39    1.36295       .     S
C39   C55    1.36295       .     S
C55   C41    1.38479       .     S
C41   C55    1.38479       .     S
C67   C41    1.38860       .     S
C41   C67    1.38860       .     S
C77   C41    1.44169       .     S
C41   C77    1.44169       .     S
H43   C42    0.93013   1_655     S
C42   H43    0.93013   1_455     S
H45   C44    0.92981       .     S
C44   H45    0.92981       .     S
C62   C44    1.39359       .     S
C44   C62    1.39359       .     S
C60   C46    1.37831       .     S
C46   C60    1.37831       .     S
C73   C46    1.38715   1_455     S
C46   C73    1.38715   1_655     S
C87   C46    1.45830       .     S
C46   C87    1.45830       .     S
C69   C47    1.38966       .     S
C47   C69    1.38966       .     S
H49   C48    0.92965       .     S
C48   H49    0.92965       .     S
H51   C50    0.92987       .     S
C50   H51    0.92987       .     S
C65   C50    1.38705       .     S
C50   C65    1.38705       .     S
H53   C52    0.93004       .     S
C52   H53    0.93004       .     S
C81   C52    1.37776       .     S
C52   C81    1.37776       .     S
C65   C54    1.35339       .     S
C54   C65    1.35339       .     S
C75   C54    1.45853       .     S
C54   C75    1.45853       .     S
C83   C54    1.40472       .     S
C54   C83    1.40472       .     S
H56   C55    0.92823       .     S
C55   H56    0.92823       .     S
C79   C57    1.39610   1_655     S
C57   C79    1.39610   1_455     S
C81   C57    1.39343       .     S
C57   C81    1.39343       .     S
C88   C57    1.42801       .     S
C57   C88    1.42801       .     S
H59   C58    0.93001       .     S
C58   H59    0.93001       .     S
C79   C58    1.39587       .     S
C58   C79    1.39587       .     S
H61   C60    0.93079       .     S
C60   H61    0.93079       .     S
H63   C62    0.93017       .     S
C62   H63    0.93017       .     S
C77   N64    1.16031       .     S
N64   C77    1.16031       .     S
H66   C65    0.93042       .     S
C65   H66    0.93042       .     S
H68   C67    0.93012       .     S
C67   H68    0.93012       .     S
C69   C67    1.36910       .     S
C67   C69    1.36910       .     S
H70   C69    0.93072       .     S
C69   H70    0.93072       .     S
H72   C71    0.93015       .     S
C71   H72    0.93015       .     S
C73   C71    1.36793   1_545     S
C71   C73    1.36793   1_565     S
H74   C73    0.92881       .     S
C73   H74    0.92881       .     S
N76   C75    1.14972       .     S
C75   N76    1.14972       .     S
C88   N78    1.13281       .     S
N78   C88    1.13281       .     S
H80   C79    0.93003       .     S
C79   H80    0.93003       .     S
H82   C81    0.92993       .     S
C81   H82    0.92993       .     S
H84   C83    0.93017       .     S
C83   H84    0.93017       .     S
C85   C83    1.36945       .     S
C83   C85    1.36945       .     S
H86   C85    0.92983       .     S
C85   H86    0.92983       .     S
N89   C87    1.13479       .     S
C87   N89    1.13479       .     S
