data_I
_chemical_name_common  '/data/user2/wty/HOF/MOFDiff/mofdiff/data/test/167_pfc-55'
_cell_length_a 16.48600
_cell_length_b 30.57600
_cell_length_c 18.06200
_cell_angle_alpha 90.00000
_cell_angle_beta  102.46200
_cell_angle_gamma 90.00000
_space_group_name_H-M_alt      'P 1'


loop_
_space_group_symop_operation_xyz
  'x, y, z' 

loop_
_atom_site_label
_atom_site_fract_x
_atom_site_fract_y
_atom_site_fract_z
_atom_site_type_symbol
Cl0    0.45553  0.68731  0.32621    Cl
Cl1    0.50743  0.62605  0.20785    Cl
Cl2    0.01772    0.627  0.12996    Cl
Cl3    0.07575  0.65008  0.97951    Cl
O4      0.1437  0.81856   0.0024     O
O5      0.3469  0.83949    0.216     O
O6      0.0107  0.94303   0.0945     O
H7     0.97141  0.95904  0.09677     H
O8      0.3719  0.01344   0.0949     O
O9      0.4409  0.95106   0.0921     O
H10    0.48024  0.96797  0.09675     H
N11     0.2406  0.83003   0.1127     N
O12     0.0729  0.00696   0.0855     O
C13     0.1539  0.94316   0.0954     C
C14      0.224  0.96794   0.0943     C
H15    0.22071  0.99829  0.09188     H
C16     0.2998  0.94681   0.0967     C
C17     0.2341  0.87743   0.1037     C
C18     0.3716  0.74947   0.2387     C
H19    0.40574  0.76809  0.27251     H
C20     0.3815  0.70345   0.2468     C
C21      0.312  0.76645   0.1814     C
C22     0.3762  0.97209   0.0952     C
C23     0.3033  0.90112   0.1003     C
H24    0.35304  0.88682  0.10028     H
C25     0.2551  0.73813   0.1337     C
C26     0.1935  0.75542   0.0747     C
C27     0.0729   0.9658   0.0914     C
C28     0.3308  0.67457   0.1983     C
C29      0.303  0.81401   0.1731     C
C30     0.2597  0.69279    0.147     C
C31     0.1584  0.89764   0.1005     C
H32    0.11123  0.88119  0.10174     H
O33     0.4039  0.46442   0.2394     O
H34    0.43988  0.47858  0.22507     H
C35     0.1886   0.8033   0.0583     C
C36     0.1925  0.66546   0.1104     C
C37     0.1401  0.72752    0.028     C
H38     0.1044  0.73817  0.98469     H
C39     0.3395  0.62597    0.196     C
C40     0.1865  0.62217   0.1438     C
C41     0.2626  0.60162   0.1779     C
N42     0.2622    0.466   0.2262     N
C43       0.14  0.68287    0.046     C
C44     0.2631   0.5562   0.1947     C
O45     0.1218  0.46727   0.2087     O
C46     0.1123   0.6003   0.1476     C
C47     0.4126  0.60236   0.2085     C
C48     0.1131   0.5564   0.1721     C
H49      0.064  0.54258  0.17602     H
C50      0.187   0.5345   0.1901     C
C51     0.4114   0.5556   0.2169     C
H52    0.46109  0.54016  0.22466     H
C53     0.3401  0.53393   0.2138     C
O54     0.1561   0.3723   0.4178     O
H55     0.1469  0.36102  0.45635     H
O56     0.1786   0.3039   0.3894     O
C57     0.3392   0.4852   0.2276     C
C58       0.26   0.4189   0.2428     C
O59     0.3416    0.322   0.1041     O
C60      0.186   0.4867   0.2087     C
C61     0.2287   0.4049   0.3036     C
H62    0.21218  0.42504  0.33602     H
C63     0.2222   0.3602   0.3157     C
C64     0.2472   0.3306   0.2674     C
H65    0.24185  0.30079  0.27542     H
C66     0.1849   0.3434   0.3788     C
O67     0.2949   0.2721   0.1725     O
H68    0.31878  0.25577  0.14815     H
C69     0.2872   0.3902    0.194     C
H70    0.30947  0.40034  0.15409     H
C71     0.2799   0.3445   0.2075     C
C72     0.3088   0.3126   0.1568     C
O73     0.0761   0.1604    0.017     O
N74     0.0692   0.2163   0.0863     N
C75     0.0988   0.2422   0.0211     C
H76    0.13544  0.22414  0.99971     H
H77    0.12759  0.26827  0.04177     H
H78     0.0514  0.25004  0.98239     H
C79     0.0668   0.1806   0.0706     C
C80     0.0571   0.2427   0.1497     C
H81    0.10677  0.25908  0.16949     H
H82    0.04503  0.22402  0.18868     H
H83    0.01166  0.26249  0.13304     H
C84      0.035   0.1583   0.1356     C
H85    0.99411  0.13668  0.11492     H
H86    0.01051  0.17983  0.16266     H
H87    0.08058  0.14446  0.16963     H
loop_
_geom_bond_atom_site_label_1
_geom_bond_atom_site_label_2
_geom_bond_distance
_geom_bond_site_symmetry_2
_ccdc_geom_bond_type
Cl0   C20    1.74207       .     S
C20   Cl0    1.74207       .     S
Cl1   C47    1.72536       .     S
C47   Cl1    1.72536       .     S
Cl2   C46    1.72767       .     S
C46   Cl2    1.72767       .     S
Cl3   C43    1.73793   1_556     S
C43   Cl3    1.73793   1_554     S
O4    C35    1.20934       .     S
C35   O4     1.20934       .     S
O5    C29    1.22030       .     S
C29   O5     1.22030       .     S
O6    H7     0.81996   1_455     S
H7    O6     0.81996   1_655     S
O6    C27    1.25065       .     S
C27   O6     1.25065       .     S
O8    C22    1.26625   1_545     S
C22   O8     1.26625   1_565     S
O9    H10    0.81945       .     S
H10   O9     0.81945       .     S
O9    C22    1.25702       .     S
C22   O9     1.25702       .     S
N11   C17    1.45975       .     S
C17   N11    1.45975       .     S
N11   C29    1.41563       .     S
C29   N11    1.41563       .     S
N11   C35    1.41591       .     S
C35   N11    1.41591       .     S
O12   C27    1.26301   1_545     S
C27   O12    1.26301   1_565     S
C13   C14    1.38562       .     S
C14   C13    1.38562       .     S
C13   C27    1.49197       .     S
C27   C13    1.49197       .     S
C13   C31    1.39578       .     S
C31   C13    1.39578       .     S
C14   H15    0.93004       .     S
H15   C14    0.93004       .     S
C14   C16    1.39911       .     S
C16   C14    1.39911       .     S
C16   C22    1.48302       .     S
C22   C16    1.48302       .     S
C16   C23    1.39914       .     S
C23   C16    1.39914       .     S
C17   C23    1.36388       .     S
C23   C17    1.36388       .     S
C17   C31    1.38258       .     S
C31   C17    1.38258       .     S
C18   H19    0.93032       .     S
H19   C18    0.93032       .     S
C18   C20    1.42045       .     S
C20   C18    1.42045       .     S
C18   C21    1.36647       .     S
C21   C18    1.36647       .     S
C20   C28    1.38916       .     S
C28   C20    1.38916       .     S
C21   C25    1.42240       .     S
C25   C21    1.42240       .     S
C21   C29    1.46614       .     S
C29   C21    1.46614       .     S
C23   H24    0.92937       .     S
H24   C23    0.92937       .     S
C25   C26    1.40690       .     S
C26   C25    1.40690       .     S
C25   C30    1.40622       .     S
C30   C25    1.40622       .     S
C26   C35    1.49237       .     S
C35   C26    1.49237       .     S
C26   C37    1.37614       .     S
C37   C26    1.37614       .     S
C28   C30    1.44018       .     S
C30   C28    1.44018       .     S
C28   C39    1.49434       .     S
C39   C28    1.49434       .     S
C30   C36    1.43059       .     S
C36   C30    1.43059       .     S
C31   H32    0.93045       .     S
H32   C31    0.93045       .     S
O33   H34    0.82009       .     S
H34   O33    0.82009       .     S
O33   C57    1.22014       .     S
C57   O33    1.22014       .     S
C36   C40    1.46679       .     S
C40   C36    1.46679       .     S
C36   C43    1.39678       .     S
C43   C36    1.39678       .     S
C37   H38    0.93041   1_554     S
H38   C37    0.93041   1_556     S
C37   C43    1.40348       .     S
C43   C37    1.40348       .     S
C39   C41    1.44553       .     S
C41   C39    1.44553       .     S
C39   C47    1.38095       .     S
C47   C39    1.38095       .     S
C40   C41    1.41938       .     S
C41   C40    1.41938       .     S
C40   C46    1.40871       .     S
C46   C40    1.40871       .     S
C41   C44    1.42117       .     S
C44   C41    1.42117       .     S
N42   C57    1.39386       .     S
C57   N42    1.39386       .     S
N42   C58    1.47305       .     S
C58   N42    1.47305       .     S
N42   C60    1.38103       .     S
C60   N42    1.38103       .     S
C44   C50    1.40575       .     S
C50   C44    1.40575       .     S
C44   C53    1.41602       .     S
C53   C44    1.41602       .     S
O45   C60    1.21374       .     S
C60   O45    1.21374       .     S
C46   C48    1.41252       .     S
C48   C46    1.41252       .     S
C47   C51    1.43835       .     S
C51   C47    1.43835       .     S
C48   H49    0.92927       .     S
H49   C48    0.92927       .     S
C48   C50    1.36654       .     S
C50   C48    1.36654       .     S
C50   C60    1.50054       .     S
C60   C50    1.50054       .     S
C51   H52    0.92953       .     S
H52   C51    0.92953       .     S
C51   C53    1.33994       .     S
C53   C51    1.33994       .     S
C53   C57    1.51127       .     S
C57   C53    1.51127       .     S
O54   H55    0.81997       .     S
H55   O54    0.81997       .     S
O54   C66    1.28328       .     S
C66   O54    1.28328       .     S
O56   C66    1.23073       .     S
C66   O56    1.23073       .     S
C58   C61    1.37842       .     S
C61   C58    1.37842       .     S
C58   C69    1.38515       .     S
C69   C58    1.38515       .     S
O59   C72    1.22605       .     S
C72   O59    1.22605       .     S
C61   H62    0.93011       .     S
H62   C61    0.93011       .     S
C61   C63    1.39189       .     S
C63   C61    1.39189       .     S
C63   C64    1.38030       .     S
C64   C63    1.38030       .     S
C63   C66    1.49780       .     S
C66   C63    1.49780       .     S
C64   H65    0.93008       .     S
H65   C64    0.93008       .     S
C64   C71    1.37605       .     S
C71   C64    1.37605       .     S
O67   H68    0.82003       .     S
H68   O67    0.82003       .     S
O67   C72    1.30170       .     S
C72   O67    1.30170       .     S
C69   H70    0.92993       .     S
H70   C69    0.92993       .     S
C69   C71    1.42798       .     S
C71   C69    1.42798       .     S
C71   C72    1.48501       .     S
C72   C71    1.48501       .     S
O73   C79    1.18588       .     S
C79   O73    1.18588       .     S
N74   C75    1.58118       .     S
C75   N74    1.58118       .     S
N74   C79    1.12634       .     S
C79   N74    1.12634       .     S
N74   C80    1.44958       .     S
C80   N74    1.44958       .     S
C75   H76    0.95905   1_554     S
H76   C75    0.95905   1_556     S
C75   H77    0.96103       .     S
H77   C75    0.96103       .     S
C75   H78    0.95977   1_554     S
H78   C75    0.95977   1_556     S
C79   C84    1.54394       .     S
C84   C79    1.54394       .     S
C80   H81    0.96063       .     S
H81   C80    0.96063       .     S
C80   H82    0.96020       .     S
H82   C80    0.96020       .     S
C80   H83    0.95947       .     S
H83   C80    0.95947       .     S
C84   H85    0.96035   1_455     S
H85   C84    0.96035   1_655     S
C84   H86    0.95938       .     S
H86   C84    0.95938       .     S
C84   H87    0.96030       .     S
H87   C84    0.96030       .     S
C20   Cl0    1.74207       .     S
Cl0   C20    1.74207       .     S
C47   Cl1    1.72536       .     S
Cl1   C47    1.72536       .     S
C46   Cl2    1.72767       .     S
Cl2   C46    1.72767       .     S
C43   Cl3    1.73793   1_554     S
Cl3   C43    1.73793   1_556     S
C35   O4     1.20934       .     S
O4    C35    1.20934       .     S
C29   O5     1.22030       .     S
O5    C29    1.22030       .     S
H7    O6     0.81996   1_655     S
O6    H7     0.81996   1_455     S
C27   O6     1.25065       .     S
O6    C27    1.25065       .     S
C22   O8     1.26625   1_565     S
O8    C22    1.26625   1_545     S
H10   O9     0.81945       .     S
O9    H10    0.81945       .     S
C22   O9     1.25702       .     S
O9    C22    1.25702       .     S
C17   N11    1.45975       .     S
N11   C17    1.45975       .     S
C29   N11    1.41563       .     S
N11   C29    1.41563       .     S
C35   N11    1.41591       .     S
N11   C35    1.41591       .     S
C27   O12    1.26301   1_565     S
O12   C27    1.26301   1_545     S
C14   C13    1.38562       .     S
C13   C14    1.38562       .     S
C27   C13    1.49197       .     S
C13   C27    1.49197       .     S
C31   C13    1.39578       .     S
C13   C31    1.39578       .     S
H15   C14    0.93004       .     S
C14   H15    0.93004       .     S
C16   C14    1.39911       .     S
C14   C16    1.39911       .     S
C22   C16    1.48302       .     S
C16   C22    1.48302       .     S
C23   C16    1.39914       .     S
C16   C23    1.39914       .     S
C23   C17    1.36388       .     S
C17   C23    1.36388       .     S
C31   C17    1.38258       .     S
C17   C31    1.38258       .     S
H19   C18    0.93032       .     S
C18   H19    0.93032       .     S
C20   C18    1.42045       .     S
C18   C20    1.42045       .     S
C21   C18    1.36647       .     S
C18   C21    1.36647       .     S
C28   C20    1.38916       .     S
C20   C28    1.38916       .     S
C25   C21    1.42240       .     S
C21   C25    1.42240       .     S
C29   C21    1.46614       .     S
C21   C29    1.46614       .     S
H24   C23    0.92937       .     S
C23   H24    0.92937       .     S
C26   C25    1.40690       .     S
C25   C26    1.40690       .     S
C30   C25    1.40622       .     S
C25   C30    1.40622       .     S
C35   C26    1.49237       .     S
C26   C35    1.49237       .     S
C37   C26    1.37614       .     S
C26   C37    1.37614       .     S
C30   C28    1.44018       .     S
C28   C30    1.44018       .     S
C39   C28    1.49434       .     S
C28   C39    1.49434       .     S
C36   C30    1.43059       .     S
C30   C36    1.43059       .     S
H32   C31    0.93045       .     S
C31   H32    0.93045       .     S
H34   O33    0.82009       .     S
O33   H34    0.82009       .     S
C57   O33    1.22014       .     S
O33   C57    1.22014       .     S
C40   C36    1.46679       .     S
C36   C40    1.46679       .     S
C43   C36    1.39678       .     S
C36   C43    1.39678       .     S
H38   C37    0.93041   1_556     S
C37   H38    0.93041   1_554     S
C43   C37    1.40348       .     S
C37   C43    1.40348       .     S
C41   C39    1.44553       .     S
C39   C41    1.44553       .     S
C47   C39    1.38095       .     S
C39   C47    1.38095       .     S
C41   C40    1.41938       .     S
C40   C41    1.41938       .     S
C46   C40    1.40871       .     S
C40   C46    1.40871       .     S
C44   C41    1.42117       .     S
C41   C44    1.42117       .     S
C57   N42    1.39386       .     S
N42   C57    1.39386       .     S
C58   N42    1.47305       .     S
N42   C58    1.47305       .     S
C60   N42    1.38103       .     S
N42   C60    1.38103       .     S
C50   C44    1.40575       .     S
C44   C50    1.40575       .     S
C53   C44    1.41602       .     S
C44   C53    1.41602       .     S
C60   O45    1.21374       .     S
O45   C60    1.21374       .     S
C48   C46    1.41252       .     S
C46   C48    1.41252       .     S
C51   C47    1.43835       .     S
C47   C51    1.43835       .     S
H49   C48    0.92927       .     S
C48   H49    0.92927       .     S
C50   C48    1.36654       .     S
C48   C50    1.36654       .     S
C60   C50    1.50054       .     S
C50   C60    1.50054       .     S
H52   C51    0.92953       .     S
C51   H52    0.92953       .     S
C53   C51    1.33994       .     S
C51   C53    1.33994       .     S
C57   C53    1.51127       .     S
C53   C57    1.51127       .     S
H55   O54    0.81997       .     S
O54   H55    0.81997       .     S
C66   O54    1.28328       .     S
O54   C66    1.28328       .     S
C66   O56    1.23073       .     S
O56   C66    1.23073       .     S
C61   C58    1.37842       .     S
C58   C61    1.37842       .     S
C69   C58    1.38515       .     S
C58   C69    1.38515       .     S
C72   O59    1.22605       .     S
O59   C72    1.22605       .     S
H62   C61    0.93011       .     S
C61   H62    0.93011       .     S
C63   C61    1.39189       .     S
C61   C63    1.39189       .     S
C64   C63    1.38030       .     S
C63   C64    1.38030       .     S
C66   C63    1.49780       .     S
C63   C66    1.49780       .     S
H65   C64    0.93008       .     S
C64   H65    0.93008       .     S
C71   C64    1.37605       .     S
C64   C71    1.37605       .     S
H68   O67    0.82003       .     S
O67   H68    0.82003       .     S
C72   O67    1.30170       .     S
O67   C72    1.30170       .     S
H70   C69    0.92993       .     S
C69   H70    0.92993       .     S
C71   C69    1.42798       .     S
C69   C71    1.42798       .     S
C72   C71    1.48501       .     S
C71   C72    1.48501       .     S
C79   O73    1.18588       .     S
O73   C79    1.18588       .     S
C75   N74    1.58118       .     S
N74   C75    1.58118       .     S
C79   N74    1.12634       .     S
N74   C79    1.12634       .     S
C80   N74    1.44958       .     S
N74   C80    1.44958       .     S
H76   C75    0.95905   1_556     S
C75   H76    0.95905   1_554     S
H77   C75    0.96103       .     S
C75   H77    0.96103       .     S
H78   C75    0.95977   1_556     S
C75   H78    0.95977   1_554     S
C84   C79    1.54394       .     S
C79   C84    1.54394       .     S
H81   C80    0.96063       .     S
C80   H81    0.96063       .     S
H82   C80    0.96020       .     S
C80   H82    0.96020       .     S
H83   C80    0.95947       .     S
C80   H83    0.95947       .     S
H85   C84    0.96035   1_655     S
C84   H85    0.96035   1_455     S
H86   C84    0.95938       .     S
C84   H86    0.95938       .     S
H87   C84    0.96030       .     S
C84   H87    0.96030       .     S
