data_I
_chemical_name_common  '/data/user2/wty/HOF/MOFDiff/mofdiff/data/test/172-tpe-aa-1'
_cell_length_a 13.76790
_cell_length_b 15.70730
_cell_length_c 19.28260
_cell_angle_alpha 66.53900
_cell_angle_beta  69.54100
_cell_angle_gamma 81.64500
_space_group_name_H-M_alt      'P 1'


loop_
_space_group_symop_operation_xyz
  'x, y, z' 

loop_
_atom_site_label
_atom_site_fract_x
_atom_site_fract_y
_atom_site_fract_z
_atom_site_type_symbol
O0     0.83621   0.8762  0.53024     O
O1     0.76212  0.74261  0.56285     O
O2     0.57825  0.06071  0.40811     O
O3     0.41576  0.09374  0.46894     O
H4     0.42199  0.04509  0.50488     H
C5      0.7928  0.59248  0.36535     C
H6     0.78317  0.63904  0.38548     H
C7     0.75306  0.60908  0.29967     C
C8     0.68077  0.67841  0.28178     C
H9     0.65169  0.71143  0.31502     H
C10     0.6514  0.69908  0.21534     C
H11    0.60251  0.74571  0.20474     H
C12    0.69324  0.65179  0.16392     C
C13     0.7653  0.58159  0.18252     C
H14    0.79468  0.54869  0.14922     H
C15     0.7937  0.56021  0.24922     C
H16     0.8409  0.51226  0.26085     H
C17    0.67032  0.67886  0.08823     C
C18    0.66366  0.77981  0.04276     C
C19    0.73416  0.84314  0.03217     C
H20    0.78613   0.8223  0.05568     H
C21    0.72756  0.93618  0.98728     C
H22     0.7757  0.97723  0.98021     H
C23    0.64946  0.96934  0.95238     C
C24    0.57686  0.90683  0.96576     C
H25    0.52328  0.92799  0.94399     H
C26    0.58325  0.81381  0.01092     C
H27    0.53306  0.77333  0.02017     H
C28    0.66005  0.61535  0.05951     C
C29    0.67477  0.64016  0.97344     C
C30    0.75625  0.69789  0.91468     C
H31    0.80025  0.72155  0.92979     H
C32    0.77258  0.72044  0.83443     C
H33     0.8266  0.75985  0.79643     H
C34    0.70955  0.68511  0.80988     C
C35    0.63027  0.62538  0.86835     C
H36    0.58814  0.59979  0.85313     H
C37    0.61292  0.60335   0.9487     C
H38    0.55926  0.56346   0.9866     H
C39     0.6365  0.51667  0.11328     C
C40    0.55823  0.49599  0.18707     C
H41    0.51795  0.54383  0.19993     H
C42    0.53986  0.40627  0.24082     C
H43    0.48746  0.39421  0.28961     H
C44    0.59847  0.33309  0.22341     C
C45    0.67365  0.35261  0.14863     C
H46     0.7127  0.30449  0.13541     H
C47     0.6908  0.44343  0.09357     C
H48    0.73912   0.4552  0.04305     H
C49    0.58546  0.23739   0.2829     C
H50    0.63637  0.19418   0.2724     H
C51    0.50679  0.20808  0.35025     C
H52     0.4516  0.24849   0.3591     H
C53    0.50315  0.11409   0.4117     C
C54    0.72605  0.70796   0.7252     C
H55    0.69513  0.66982  0.71245     H
C56    0.78179  0.77897  0.66489     C
H57    0.81443  0.81631  0.67722     H
C58    0.79527  0.80234   0.5806     C
C59    0.64213  0.06541   0.8998     C
H60    0.58551  0.07996  0.88131     H
C61    0.70621  0.13474  0.87502     C
H62    0.76006  0.12694   0.8957     H
H63       0.77    0.762    0.518     H
C64     0.6907  0.22421  0.81425     C
O65      0.608    0.246   0.8001     O
O66     0.7679   0.2811   0.7782     O
H67    0.81961   0.2555  0.75762     H
O68      0.732   0.2963   0.8066     O
H69    0.73749   0.3363  0.76229     H
O70     0.6157   0.2333   0.7899     O
C71     0.8415   0.5156    0.398     C
H72    0.83491  0.46348  0.38847     H
O73     0.9541  0.43343  0.46918     O
C74     0.9045   0.5063   0.4474     C
C75      0.853   0.5073   0.4845     C
O76     0.8707   0.4268   0.5247     O
O77     0.9005   0.5754   0.4687     O
H78    0.95836   0.5848  0.46715     H
O79      0.851   0.5746   0.5075     O
H80    0.90684  0.57721  0.51283     H
H81    0.86666  0.47101  0.37547     H
loop_
_geom_bond_atom_site_label_1
_geom_bond_atom_site_label_2
_geom_bond_distance
_geom_bond_site_symmetry_2
_ccdc_geom_bond_type
O0    C58    1.23166       .     S
C58   O0     1.23166       .     S
O1    C58    1.30192       .     S
C58   O1     1.30192       .     S
O1    H63    0.76598       .     S
H63   O1     0.76598       .     S
O2    C53    1.23334       .     S
C53   O2     1.23334       .     S
O3    H4     0.82000       .     S
H4    O3     0.82000       .     S
O3    C53    1.29249       .     S
C53   O3     1.29249       .     S
C5    H6     0.93004       .     S
H6    C5     0.93004       .     S
C5    C7     1.46674       .     S
C7    C5     1.46674       .     S
C5    C71    1.32613       .     S
C71   C5     1.32613       .     S
C7    C8     1.38614       .     S
C8    C7     1.38614       .     S
C7    C15    1.39209       .     S
C15   C7     1.39209       .     S
C8    H9     0.93010       .     S
H9    C8     0.93010       .     S
C8    C10    1.37950       .     S
C10   C8     1.37950       .     S
C10   H11    0.93006       .     S
H11   C10    0.93006       .     S
C10   C12    1.38906       .     S
C12   C10    1.38906       .     S
C12   C13    1.39453       .     S
C13   C12    1.39453       .     S
C12   C17    1.48302       .     S
C17   C12    1.48302       .     S
C13   H14    0.92998       .     S
H14   C13    0.92998       .     S
C13   C15    1.37453       .     S
C15   C13    1.37453       .     S
C15   H16    0.93005       .     S
H16   C15    0.93005       .     S
C17   C18    1.48270       .     S
C18   C17    1.48270       .     S
C17   C28    1.36288       .     S
C28   C17    1.36288       .     S
C18   C19    1.39773       .     S
C19   C18    1.39773       .     S
C18   C26    1.38926       .     S
C26   C18    1.38926       .     S
C19   H20    0.93014       .     S
H20   C19    0.93014       .     S
C19   C21    1.37926   1_554     S
C21   C19    1.37926   1_556     S
C21   H22    0.92987       .     S
H22   C21    0.92987       .     S
C21   C23    1.39441       .     S
C23   C21    1.39441       .     S
C23   C24    1.39030       .     S
C24   C23    1.39030       .     S
C23   C59    1.45749   1_565     S
C59   C23    1.45749   1_545     S
C24   H25    0.93005       .     S
H25   C24    0.93005       .     S
C24   C26    1.37984   1_556     S
C26   C24    1.37984   1_554     S
C26   H27    0.92995       .     S
H27   C26    0.92995       .     S
C28   C29    1.49004   1_554     S
C29   C28    1.49004   1_556     S
C28   C39    1.48796       .     S
C39   C28    1.48796       .     S
C29   C30    1.39767       .     S
C30   C29    1.39767       .     S
C29   C37    1.39057       .     S
C37   C29    1.39057       .     S
C30   H31    0.93006       .     S
H31   C30    0.93006       .     S
C30   C32    1.38349       .     S
C32   C30    1.38349       .     S
C32   H33    0.93000       .     S
H33   C32    0.93000       .     S
C32   C34    1.38615       .     S
C34   C32    1.38615       .     S
C34   C35    1.39206       .     S
C35   C34    1.39206       .     S
C34   C54    1.46437       .     S
C54   C34    1.46437       .     S
C35   H36    0.92996       .     S
H36   C35    0.92996       .     S
C35   C37    1.38409       .     S
C37   C35    1.38409       .     S
C37   H38    0.93003       .     S
H38   C37    0.93003       .     S
C39   C40    1.39754       .     S
C40   C39    1.39754       .     S
C39   C47    1.38793       .     S
C47   C39    1.38793       .     S
C40   H41    0.92996       .     S
H41   C40    0.92996       .     S
C40   C42    1.37168       .     S
C42   C40    1.37168       .     S
C42   H43    0.92994       .     S
H43   C42    0.92994       .     S
C42   C44    1.39048       .     S
C44   C42    1.39048       .     S
C44   C45    1.39335       .     S
C45   C44    1.39335       .     S
C44   C49    1.47280       .     S
C49   C44    1.47280       .     S
C45   H46    0.92996       .     S
H46   C45    0.92996       .     S
C45   C47    1.39091       .     S
C47   C45    1.39091       .     S
C47   H48    0.93007       .     S
H48   C47    0.93007       .     S
C49   H50    0.93000       .     S
H50   C49    0.93000       .     S
C49   C51    1.32559       .     S
C51   C49    1.32559       .     S
C51   H52    0.92995       .     S
H52   C51    0.92995       .     S
C51   C53    1.47417       .     S
C53   C51    1.47417       .     S
C54   H55    0.93012       .     S
H55   C54    0.93012       .     S
C54   C56    1.33321       .     S
C56   C54    1.33321       .     S
C56   H57    0.92994       .     S
H57   C56    0.92994       .     S
C56   C58    1.46450       .     S
C58   C56    1.46450       .     S
C59   H60    0.92988       .     S
H60   C59    0.92988       .     S
C59   C61    1.32769       .     S
C61   C59    1.32769       .     S
C61   H62    0.93009       .     S
H62   C61    0.93009       .     S
C61   C64    1.47314       .     S
C64   C61    1.47314       .     S
C64   O65    1.23190       .     S
O65   C64    1.23190       .     S
C64   O66    1.29473       .     S
O66   C64    1.29473       .     S
C64   O68    1.27387       .     S
O68   C64    1.27387       .     S
C64   O70    1.24491       .     S
O70   C64    1.24491       .     S
O65   O70    0.31660       .     S
O70   O65    0.31660       .     S
O66   H67    0.81999       .     S
H67   O66    0.81999       .     S
O66   O68    0.69411       .     S
O68   O66    0.69411       .     S
O66   H69    0.89088       .     S
H69   O66    0.89088       .     S
O68   H69    0.81957       .     S
H69   O68    0.81957       .     S
C71   H72    0.93019       .     S
H72   C71    0.93019       .     S
C71   C74    1.45294       .     S
C74   C71    1.45294       .     S
C71   C75    1.68213       .     S
C75   C71    1.68213       .     S
C71   H81    0.93051       .     S
H81   C71    0.93051       .     S
H72   H81    0.42746       .     S
H81   H72    0.42746       .     S
O73   C74    1.24233       .     S
C74   O73    1.24233       .     S
O73   O76    1.24982       .     S
O76   O73    1.24982       .     S
C74   C75    0.81601       .     S
C75   C74    0.81601       .     S
C74   O76    1.48308       .     S
O76   C74    1.48308       .     S
C74   O77    1.29288       .     S
O77   C74    1.29288       .     S
C75   O76    1.23334       .     S
O76   C75    1.23334       .     S
C75   O77    1.21211       .     S
O77   C75    1.21211       .     S
C75   O79    1.29276       .     S
O79   C75    1.29276       .     S
O77   H78    0.81933       .     S
H78   O77    0.81933       .     S
O77   O79    0.81420       .     S
O79   O77    0.81420       .     S
O77   H80    0.89691       .     S
H80   O77    0.89691       .     S
O79   H80    0.81918       .     S
H80   O79    0.81918       .     S
C58   O0     1.23166       .     S
O0    C58    1.23166       .     S
C58   O1     1.30192       .     S
O1    C58    1.30192       .     S
H63   O1     0.76598       .     S
O1    H63    0.76598       .     S
C53   O2     1.23334       .     S
O2    C53    1.23334       .     S
H4    O3     0.82000       .     S
O3    H4     0.82000       .     S
C53   O3     1.29249       .     S
O3    C53    1.29249       .     S
H6    C5     0.93004       .     S
C5    H6     0.93004       .     S
C7    C5     1.46674       .     S
C5    C7     1.46674       .     S
C71   C5     1.32613       .     S
C5    C71    1.32613       .     S
C8    C7     1.38614       .     S
C7    C8     1.38614       .     S
C15   C7     1.39209       .     S
C7    C15    1.39209       .     S
H9    C8     0.93010       .     S
C8    H9     0.93010       .     S
C10   C8     1.37950       .     S
C8    C10    1.37950       .     S
H11   C10    0.93006       .     S
C10   H11    0.93006       .     S
C12   C10    1.38906       .     S
C10   C12    1.38906       .     S
C13   C12    1.39453       .     S
C12   C13    1.39453       .     S
C17   C12    1.48302       .     S
C12   C17    1.48302       .     S
H14   C13    0.92998       .     S
C13   H14    0.92998       .     S
C15   C13    1.37453       .     S
C13   C15    1.37453       .     S
H16   C15    0.93005       .     S
C15   H16    0.93005       .     S
C18   C17    1.48270       .     S
C17   C18    1.48270       .     S
C28   C17    1.36288       .     S
C17   C28    1.36288       .     S
C19   C18    1.39773       .     S
C18   C19    1.39773       .     S
C26   C18    1.38926       .     S
C18   C26    1.38926       .     S
H20   C19    0.93014       .     S
C19   H20    0.93014       .     S
C21   C19    1.37926   1_556     S
C19   C21    1.37926   1_554     S
H22   C21    0.92987       .     S
C21   H22    0.92987       .     S
C23   C21    1.39441       .     S
C21   C23    1.39441       .     S
C24   C23    1.39030       .     S
C23   C24    1.39030       .     S
C59   C23    1.45749   1_545     S
C23   C59    1.45749   1_565     S
H25   C24    0.93005       .     S
C24   H25    0.93005       .     S
C26   C24    1.37984   1_554     S
C24   C26    1.37984   1_556     S
H27   C26    0.92995       .     S
C26   H27    0.92995       .     S
C29   C28    1.49004   1_556     S
C28   C29    1.49004   1_554     S
C39   C28    1.48796       .     S
C28   C39    1.48796       .     S
C30   C29    1.39767       .     S
C29   C30    1.39767       .     S
C37   C29    1.39057       .     S
C29   C37    1.39057       .     S
H31   C30    0.93006       .     S
C30   H31    0.93006       .     S
C32   C30    1.38349       .     S
C30   C32    1.38349       .     S
H33   C32    0.93000       .     S
C32   H33    0.93000       .     S
C34   C32    1.38615       .     S
C32   C34    1.38615       .     S
C35   C34    1.39206       .     S
C34   C35    1.39206       .     S
C54   C34    1.46437       .     S
C34   C54    1.46437       .     S
H36   C35    0.92996       .     S
C35   H36    0.92996       .     S
C37   C35    1.38409       .     S
C35   C37    1.38409       .     S
H38   C37    0.93003       .     S
C37   H38    0.93003       .     S
C40   C39    1.39754       .     S
C39   C40    1.39754       .     S
C47   C39    1.38793       .     S
C39   C47    1.38793       .     S
H41   C40    0.92996       .     S
C40   H41    0.92996       .     S
C42   C40    1.37168       .     S
C40   C42    1.37168       .     S
H43   C42    0.92994       .     S
C42   H43    0.92994       .     S
C44   C42    1.39048       .     S
C42   C44    1.39048       .     S
C45   C44    1.39335       .     S
C44   C45    1.39335       .     S
C49   C44    1.47280       .     S
C44   C49    1.47280       .     S
H46   C45    0.92996       .     S
C45   H46    0.92996       .     S
C47   C45    1.39091       .     S
C45   C47    1.39091       .     S
H48   C47    0.93007       .     S
C47   H48    0.93007       .     S
H50   C49    0.93000       .     S
C49   H50    0.93000       .     S
C51   C49    1.32559       .     S
C49   C51    1.32559       .     S
H52   C51    0.92995       .     S
C51   H52    0.92995       .     S
C53   C51    1.47417       .     S
C51   C53    1.47417       .     S
H55   C54    0.93012       .     S
C54   H55    0.93012       .     S
C56   C54    1.33321       .     S
C54   C56    1.33321       .     S
H57   C56    0.92994       .     S
C56   H57    0.92994       .     S
C58   C56    1.46450       .     S
C56   C58    1.46450       .     S
H60   C59    0.92988       .     S
C59   H60    0.92988       .     S
C61   C59    1.32769       .     S
C59   C61    1.32769       .     S
H62   C61    0.93009       .     S
C61   H62    0.93009       .     S
C64   C61    1.47314       .     S
C61   C64    1.47314       .     S
O65   C64    1.23190       .     S
C64   O65    1.23190       .     S
O66   C64    1.29473       .     S
C64   O66    1.29473       .     S
O68   C64    1.27387       .     S
C64   O68    1.27387       .     S
O70   C64    1.24491       .     S
C64   O70    1.24491       .     S
O70   O65    0.31660       .     S
O65   O70    0.31660       .     S
H67   O66    0.81999       .     S
O66   H67    0.81999       .     S
O68   O66    0.69411       .     S
O66   O68    0.69411       .     S
H69   O66    0.89088       .     S
O66   H69    0.89088       .     S
H69   O68    0.81957       .     S
O68   H69    0.81957       .     S
H72   C71    0.93019       .     S
C71   H72    0.93019       .     S
C74   C71    1.45294       .     S
C71   C74    1.45294       .     S
C75   C71    1.68213       .     S
C71   C75    1.68213       .     S
H81   C71    0.93051       .     S
C71   H81    0.93051       .     S
H81   H72    0.42746       .     S
H72   H81    0.42746       .     S
C74   O73    1.24233       .     S
O73   C74    1.24233       .     S
O76   O73    1.24982       .     S
O73   O76    1.24982       .     S
C75   C74    0.81601       .     S
C74   C75    0.81601       .     S
O76   C74    1.48308       .     S
C74   O76    1.48308       .     S
O77   C74    1.29288       .     S
C74   O77    1.29288       .     S
O76   C75    1.23334       .     S
C75   O76    1.23334       .     S
O77   C75    1.21211       .     S
C75   O77    1.21211       .     S
O79   C75    1.29276       .     S
C75   O79    1.29276       .     S
H78   O77    0.81933       .     S
O77   H78    0.81933       .     S
O79   O77    0.81420       .     S
O77   O79    0.81420       .     S
H80   O77    0.89691       .     S
O77   H80    0.89691       .     S
H80   O79    0.81918       .     S
O79   H80    0.81918       .     S
