data_I
_chemical_name_common  '/data/user2/wty/HOF/MOFDiff/mofdiff/data/test/172-tpe-aa-3'
_cell_length_a 10.71110
_cell_length_b 10.71110
_cell_length_c 32.22510
_cell_angle_alpha 90.00000
_cell_angle_beta  90.00000
_cell_angle_gamma 90.00000
_space_group_name_H-M_alt      'P 1'


loop_
_space_group_symop_operation_xyz
  'x, y, z' 

loop_
_atom_site_label
_atom_site_fract_x
_atom_site_fract_y
_atom_site_fract_z
_atom_site_type_symbol
O0     0.59039  0.37472  0.02851     O
O1     0.78367   0.4153  0.04647     O
H2     0.79689  0.40064  0.02188     H
C3     0.29481  0.70519     0.25     C
C4     0.34637  0.64936  0.21112     C
C5     0.47598  0.63994  0.20698     C
H6     0.52698  0.66828  0.22835     H
C7     0.52976  0.58964  0.17197     C
H8     0.61627  0.58557  0.16993     H
C9     0.45605  0.54459  0.13946     C
C10    0.32677  0.55333   0.1438     C
H11    0.27564  0.52438  0.12255     H
C12    0.27286  0.60408  0.17897     C
H13    0.18636  0.60793  0.18111     H
C14    0.50791  0.48926  0.10153     C
H15    0.45071  0.46401  0.08151     H
C16    0.62717  0.47143  0.09275     C
H17    0.68732  0.49403  0.11216     H
C18    0.66702  0.41669  0.05302     C
O19    0.90961  0.12528  0.02851     O
O20    0.71633   0.0847  0.04647     O
H21    0.70311  0.09937  0.02188     H
C22    0.20519  0.79481     0.25     C
C23    0.15363  0.85064  0.21112     C
C24    0.02402  0.86006  0.20698     C
H25    0.97302  0.83172  0.22835     H
C26    0.97024  0.91036  0.17197     C
H27    0.88373  0.91443  0.16993     H
C28    0.04395  0.95541  0.13946     C
C29    0.17323  0.94667   0.1438     C
H30    0.22436  0.97562  0.12255     H
C31    0.22714  0.89592  0.17897     C
H32    0.31364  0.89207  0.18111     H
C33    0.99209  0.01074  0.10153     C
H34    0.04929  0.03599  0.08151     H
C35    0.87283  0.02857  0.09275     C
H36    0.81268  0.00597  0.11216     H
C37    0.83298  0.08331  0.05302     C
O38    0.87472  0.09039  0.47149     O
O39     0.9153  0.28367  0.45353     O
H40    0.90063  0.29689  0.47812     H
C41    0.14936  0.84637  0.28888     C
C42    0.13994  0.97598  0.29302     C
H43    0.16828  0.02698  0.27165     H
C44    0.08964  0.02976  0.32803     C
H45    0.08557  0.11627  0.33007     H
C46    0.04459  0.95605  0.36054     C
C47    0.05333  0.82677   0.3562     C
H48    0.02438  0.77564  0.37745     H
C49    0.10408  0.77286  0.32103     C
H50    0.10793  0.68636  0.31889     H
C51    0.98926  0.00791  0.39847     C
H52    0.96401  0.95071  0.41849     H
C53    0.97143  0.12717  0.40725     C
H54    0.99403  0.18732  0.38784     H
C55    0.91669  0.16702  0.44698     C
O56    0.62528  0.40961  0.47149     O
O57     0.5847  0.21633  0.45353     O
H58    0.59937  0.20311  0.47812     H
C59    0.35064  0.65363  0.28888     C
C60    0.36006  0.52402  0.29302     C
H61    0.33172  0.47302  0.27165     H
C62    0.41036  0.47024  0.32803     C
H63    0.41443  0.38373  0.33007     H
C64    0.45541  0.54395  0.36054     C
C65    0.44667  0.67323   0.3562     C
H66    0.47562  0.72436  0.37745     H
C67    0.39592  0.72714  0.32103     C
H68    0.39207  0.81364  0.31889     H
C69    0.51074  0.49209  0.39847     C
H70    0.53599  0.54929  0.41849     H
C71    0.52857  0.37283  0.40725     C
H72    0.50597  0.31268  0.38784     H
C73    0.58331  0.33298  0.44698     C
H74    0.67534  0.78957  0.51038     H
H75     0.6784  0.70512  0.51038     H
C76       0.75     0.75   0.5004     C
H77    0.66556  0.74693  0.51038     H
H78    0.83444  0.75307  0.51038     H
H79    0.75307  0.66556  0.51038     H
H80    0.74693  0.83444  0.51038     H
H81    0.78957  0.82466  0.51038     H
H82    0.70512   0.8216  0.51038     H
H83     0.8216  0.79488  0.51038     H
H84    0.82466  0.71043  0.51038     H
H85    0.79488   0.6784  0.51038     H
N86       0.75     0.75  0.42229     N
C87       0.75     0.75  0.45665     C
H88    0.71043  0.67534  0.51038     H
H89    0.79258  0.67701  0.33224     H
C90       0.75     0.75  0.32231     C
H91     0.6655  0.74962  0.33224     H
H92     0.8345  0.75038  0.33224     H
H93    0.75038   0.6655  0.33224     H
H94    0.74962   0.8345  0.33224     H
H95    0.70742  0.82299  0.33224     H
H96    0.67663  0.79192  0.33224     H
H97    0.67701  0.70742  0.33224     H
H98    0.70808  0.67663  0.33224     H
N99       0.75     0.75  0.24248     N
C100      0.75     0.75  0.27766     C
H101   0.79192  0.82337  0.33224     H
H102   0.82299  0.79258  0.33224     H
H103   0.82337  0.70808  0.33224     H
loop_
_geom_bond_atom_site_label_1
_geom_bond_atom_site_label_2
_geom_bond_distance
_geom_bond_site_symmetry_2
_ccdc_geom_bond_type
O0    C18    1.22459       .     S
C18   O0     1.22459       .     S
O1    H2     0.82014       .     S
H2    O1     0.82014       .     S
O1    C18    1.26724       .     S
C18   O1     1.26724       .     S
C3    C4     1.49412       .     S
C4    C3     1.49412       .     S
C3    C22    1.35754       .     S
C22   C3     1.35754       .     S
C3    C59    1.49412       .     S
C59   C3     1.49412       .     S
C4    C5     1.39831       .     S
C5    C4     1.39831       .     S
C4    C12    1.38872       .     S
C12   C4     1.38872       .     S
C5    H6     0.92994       .     S
H6    C5     0.92994       .     S
C5    C7     1.37657       .     S
C7    C5     1.37657       .     S
C7    H8     0.92997       .     S
H8    C7     0.92997       .     S
C7    C9     1.39776       .     S
C9    C7     1.39776       .     S
C9    C10    1.39492       .     S
C10   C9     1.39492       .     S
C9    C14    1.46758       .     S
C14   C9     1.46758       .     S
C10   H11    0.93006       .     S
H11   C10    0.93006       .     S
C10   C12    1.38326       .     S
C12   C10    1.38326       .     S
C12   H13    0.92999       .     S
H13   C12    0.92999       .     S
C14   H15    0.92991       .     S
H15   C14    0.92991       .     S
C14   C16    1.32223       .     S
C16   C14    1.32223       .     S
C16   H17    0.93001       .     S
H17   C16    0.93001       .     S
C16   C18    1.47144       .     S
C18   C16    1.47144       .     S
O19   C37    1.22459       .     S
C37   O19    1.22459       .     S
O20   H21    0.82016       .     S
H21   O20    0.82016       .     S
O20   C37    1.26724       .     S
C37   O20    1.26724       .     S
C22   C23    1.49412       .     S
C23   C22    1.49412       .     S
C22   C41    1.49412       .     S
C41   C22    1.49412       .     S
C23   C24    1.39831       .     S
C24   C23    1.39831       .     S
C23   C31    1.38872       .     S
C31   C23    1.38872       .     S
C24   H25    0.92994   1_455     S
H25   C24    0.92994   1_655     S
C24   C26    1.37657   1_455     S
C26   C24    1.37657   1_655     S
C26   H27    0.92997       .     S
H27   C26    0.92997       .     S
C26   C28    1.39776   1_655     S
C28   C26    1.39776   1_455     S
C28   C29    1.39492       .     S
C29   C28    1.39492       .     S
C28   C33    1.46758   1_465     S
C33   C28    1.46758   1_645     S
C29   H30    0.93006       .     S
H30   C29    0.93006       .     S
C29   C31    1.38326       .     S
C31   C29    1.38326       .     S
C31   H32    0.92999       .     S
H32   C31    0.92999       .     S
C33   H34    0.92991   1_655     S
H34   C33    0.92991   1_455     S
C33   C35    1.32223       .     S
C35   C33    1.32223       .     S
C35   H36    0.93001       .     S
H36   C35    0.93001       .     S
C35   C37    1.47144       .     S
C37   C35    1.47144       .     S
O38   C55    1.22459       .     S
C55   O38    1.22459       .     S
O39   H40    0.82016       .     S
H40   O39    0.82016       .     S
O39   C55    1.26724       .     S
C55   O39    1.26724       .     S
C41   C42    1.39831       .     S
C42   C41    1.39831       .     S
C41   C49    1.38872       .     S
C49   C41    1.38872       .     S
C42   H43    0.92994   1_565     S
H43   C42    0.92994   1_545     S
C42   C44    1.37657   1_565     S
C44   C42    1.37657   1_545     S
C44   H45    0.92997       .     S
H45   C44    0.92997       .     S
C44   C46    1.39776   1_545     S
C46   C44    1.39776   1_565     S
C46   C47    1.39492       .     S
C47   C46    1.39492       .     S
C46   C51    1.46758   1_465     S
C51   C46    1.46758   1_645     S
C47   H48    0.93006       .     S
H48   C47    0.93006       .     S
C47   C49    1.38326       .     S
C49   C47    1.38326       .     S
C49   H50    0.92999       .     S
H50   C49    0.92999       .     S
C51   H52    0.92991   1_545     S
H52   C51    0.92991   1_565     S
C51   C53    1.32223       .     S
C53   C51    1.32223       .     S
C53   H54    0.93001       .     S
H54   C53    0.93001       .     S
C53   C55    1.47144       .     S
C55   C53    1.47144       .     S
O56   C73    1.22459       .     S
C73   O56    1.22459       .     S
O57   H58    0.82016       .     S
H58   O57    0.82016       .     S
O57   C73    1.26724       .     S
C73   O57    1.26724       .     S
C59   C60    1.39831       .     S
C60   C59    1.39831       .     S
C59   C67    1.38872       .     S
C67   C59    1.38872       .     S
C60   H61    0.92994       .     S
H61   C60    0.92994       .     S
C60   C62    1.37656       .     S
C62   C60    1.37656       .     S
C62   H63    0.92997       .     S
H63   C62    0.92997       .     S
C62   C64    1.39776       .     S
C64   C62    1.39776       .     S
C64   C65    1.39492       .     S
C65   C64    1.39492       .     S
C64   C69    1.46758       .     S
C69   C64    1.46758       .     S
C65   H66    0.93006       .     S
H66   C65    0.93006       .     S
C65   C67    1.38326       .     S
C67   C65    1.38326       .     S
C67   H68    0.92999       .     S
H68   C67    0.92999       .     S
C69   H70    0.92991       .     S
H70   C69    0.92991       .     S
C69   C71    1.32223       .     S
C71   C69    1.32223       .     S
C71   H72    0.93001       .     S
H72   C71    0.93001       .     S
C71   C73    1.47144       .     S
C73   C71    1.47144       .     S
H74   C76    0.96051       .     S
C76   H74    0.96051       .     S
H74   H77    0.46858       .     S
H77   H74    0.46858       .     S
H74   H82    0.46845       .     S
H82   H74    0.46845       .     S
H75   C76    0.96056       .     S
C76   H75    0.96056       .     S
H75   H77    0.46847       .     S
H77   H75    0.46847       .     S
H75   H88    0.46845       .     S
H88   H75    0.46845       .     S
C76   H77    0.96049       .     S
H77   C76    0.96049       .     S
C76   H78    0.96049       .     S
H78   C76    0.96049       .     S
C76   H79    0.96049       .     S
H79   C76    0.96049       .     S
C76   H80    0.96049       .     S
H80   C76    0.96049       .     S
C76   H81    0.96051       .     S
H81   C76    0.96051       .     S
C76   H82    0.96056       .     S
H82   C76    0.96056       .     S
C76   H83    0.96056       .     S
H83   C76    0.96056       .     S
C76   H84    0.96051       .     S
H84   C76    0.96051       .     S
C76   H85    0.96056       .     S
H85   C76    0.96056       .     S
C76   C87    1.40985       .     S
C87   C76    1.40985       .     S
C76   H88    0.96051       .     S
H88   C76    0.96051       .     S
H78   H83    0.46847       .     S
H83   H78    0.46847       .     S
H78   H84    0.46858       .     S
H84   H78    0.46858       .     S
H79   H85    0.46847       .     S
H85   H79    0.46847       .     S
H79   H88    0.46858       .     S
H88   H79    0.46858       .     S
H80   H81    0.46858       .     S
H81   H80    0.46858       .     S
H80   H82    0.46847       .     S
H82   H80    0.46847       .     S
H81   H83    0.46845       .     S
H83   H81    0.46845       .     S
H84   H85    0.46845       .     S
H85   H84    0.46845       .     S
N86   C87    1.10725       .     S
C87   N86    1.10725       .     S
H89   C90    0.96001       .     S
C90   H89    0.96001       .     S
H89   H93    0.46852       .     S
H93   H89    0.46852       .     S
H89   H103   0.46853       .     S
H103  H89    0.46853       .     S
C90   H91    0.96000       .     S
H91   C90    0.96000       .     S
C90   H92    0.96000       .     S
H92   C90    0.96000       .     S
C90   H93    0.96000       .     S
H93   C90    0.96000       .     S
C90   H94    0.96000       .     S
H94   C90    0.96000       .     S
C90   H95    0.96001       .     S
H95   C90    0.96001       .     S
C90   H96    0.96000       .     S
H96   C90    0.96000       .     S
C90   H97    0.96001       .     S
H97   C90    0.96001       .     S
C90   H98    0.96000       .     S
H98   C90    0.96000       .     S
C90   C100   1.43885       .     S
C100  C90    1.43885       .     S
C90   H101   0.96000       .     S
H101  C90    0.96000       .     S
C90   H102   0.96001       .     S
H102  C90    0.96001       .     S
C90   H103   0.96000       .     S
H103  C90    0.96000       .     S
H91   H96    0.46850       .     S
H96   H91    0.46850       .     S
H91   H97    0.46852       .     S
H97   H91    0.46852       .     S
H92   H102   0.46852       .     S
H102  H92    0.46852       .     S
H92   H103   0.46850       .     S
H103  H92    0.46850       .     S
H93   H98    0.46850       .     S
H98   H93    0.46850       .     S
H94   H95    0.46852       .     S
H95   H94    0.46852       .     S
H94   H101   0.46850       .     S
H101  H94    0.46850       .     S
H95   H96    0.46853       .     S
H96   H95    0.46853       .     S
H97   H98    0.46853       .     S
H98   H97    0.46853       .     S
N99   C100   1.13368       .     S
C100  N99    1.13368       .     S
H101  H102   0.46853       .     S
H102  H101   0.46853       .     S
C18   O0     1.22459       .     S
O0    C18    1.22459       .     S
H2    O1     0.82014       .     S
O1    H2     0.82014       .     S
C18   O1     1.26724       .     S
O1    C18    1.26724       .     S
C4    C3     1.49412       .     S
C3    C4     1.49412       .     S
C22   C3     1.35754       .     S
C3    C22    1.35754       .     S
C59   C3     1.49412       .     S
C3    C59    1.49412       .     S
C5    C4     1.39831       .     S
C4    C5     1.39831       .     S
C12   C4     1.38872       .     S
C4    C12    1.38872       .     S
H6    C5     0.92994       .     S
C5    H6     0.92994       .     S
C7    C5     1.37657       .     S
C5    C7     1.37657       .     S
H8    C7     0.92997       .     S
C7    H8     0.92997       .     S
C9    C7     1.39776       .     S
C7    C9     1.39776       .     S
C10   C9     1.39492       .     S
C9    C10    1.39492       .     S
C14   C9     1.46758       .     S
C9    C14    1.46758       .     S
H11   C10    0.93006       .     S
C10   H11    0.93006       .     S
C12   C10    1.38326       .     S
C10   C12    1.38326       .     S
H13   C12    0.92999       .     S
C12   H13    0.92999       .     S
H15   C14    0.92991       .     S
C14   H15    0.92991       .     S
C16   C14    1.32223       .     S
C14   C16    1.32223       .     S
H17   C16    0.93001       .     S
C16   H17    0.93001       .     S
C18   C16    1.47144       .     S
C16   C18    1.47144       .     S
C37   O19    1.22459       .     S
O19   C37    1.22459       .     S
H21   O20    0.82016       .     S
O20   H21    0.82016       .     S
C37   O20    1.26724       .     S
O20   C37    1.26724       .     S
C23   C22    1.49412       .     S
C22   C23    1.49412       .     S
C41   C22    1.49412       .     S
C22   C41    1.49412       .     S
C24   C23    1.39831       .     S
C23   C24    1.39831       .     S
C31   C23    1.38872       .     S
C23   C31    1.38872       .     S
H25   C24    0.92994   1_655     S
C24   H25    0.92994   1_455     S
C26   C24    1.37657   1_655     S
C24   C26    1.37657   1_455     S
H27   C26    0.92997       .     S
C26   H27    0.92997       .     S
C28   C26    1.39776   1_455     S
C26   C28    1.39776   1_655     S
C29   C28    1.39492       .     S
C28   C29    1.39492       .     S
C33   C28    1.46758   1_645     S
C28   C33    1.46758   1_465     S
H30   C29    0.93006       .     S
C29   H30    0.93006       .     S
C31   C29    1.38326       .     S
C29   C31    1.38326       .     S
H32   C31    0.92999       .     S
C31   H32    0.92999       .     S
H34   C33    0.92991   1_455     S
C33   H34    0.92991   1_655     S
C35   C33    1.32223       .     S
C33   C35    1.32223       .     S
H36   C35    0.93001       .     S
C35   H36    0.93001       .     S
C37   C35    1.47144       .     S
C35   C37    1.47144       .     S
C55   O38    1.22459       .     S
O38   C55    1.22459       .     S
H40   O39    0.82016       .     S
O39   H40    0.82016       .     S
C55   O39    1.26724       .     S
O39   C55    1.26724       .     S
C42   C41    1.39831       .     S
C41   C42    1.39831       .     S
C49   C41    1.38872       .     S
C41   C49    1.38872       .     S
H43   C42    0.92994   1_545     S
C42   H43    0.92994   1_565     S
C44   C42    1.37657   1_545     S
C42   C44    1.37657   1_565     S
H45   C44    0.92997       .     S
C44   H45    0.92997       .     S
C46   C44    1.39776   1_565     S
C44   C46    1.39776   1_545     S
C47   C46    1.39492       .     S
C46   C47    1.39492       .     S
C51   C46    1.46758   1_645     S
C46   C51    1.46758   1_465     S
H48   C47    0.93006       .     S
C47   H48    0.93006       .     S
C49   C47    1.38326       .     S
C47   C49    1.38326       .     S
H50   C49    0.92999       .     S
C49   H50    0.92999       .     S
H52   C51    0.92991   1_565     S
C51   H52    0.92991   1_545     S
C53   C51    1.32223       .     S
C51   C53    1.32223       .     S
H54   C53    0.93001       .     S
C53   H54    0.93001       .     S
C55   C53    1.47144       .     S
C53   C55    1.47144       .     S
C73   O56    1.22459       .     S
O56   C73    1.22459       .     S
H58   O57    0.82016       .     S
O57   H58    0.82016       .     S
C73   O57    1.26724       .     S
O57   C73    1.26724       .     S
C60   C59    1.39831       .     S
C59   C60    1.39831       .     S
C67   C59    1.38872       .     S
C59   C67    1.38872       .     S
H61   C60    0.92994       .     S
C60   H61    0.92994       .     S
C62   C60    1.37656       .     S
C60   C62    1.37656       .     S
H63   C62    0.92997       .     S
C62   H63    0.92997       .     S
C64   C62    1.39776       .     S
C62   C64    1.39776       .     S
C65   C64    1.39492       .     S
C64   C65    1.39492       .     S
C69   C64    1.46758       .     S
C64   C69    1.46758       .     S
H66   C65    0.93006       .     S
C65   H66    0.93006       .     S
C67   C65    1.38326       .     S
C65   C67    1.38326       .     S
H68   C67    0.92999       .     S
C67   H68    0.92999       .     S
H70   C69    0.92991       .     S
C69   H70    0.92991       .     S
C71   C69    1.32223       .     S
C69   C71    1.32223       .     S
H72   C71    0.93001       .     S
C71   H72    0.93001       .     S
C73   C71    1.47144       .     S
C71   C73    1.47144       .     S
C76   H74    0.96051       .     S
H74   C76    0.96051       .     S
H77   H74    0.46858       .     S
H74   H77    0.46858       .     S
H82   H74    0.46845       .     S
H74   H82    0.46845       .     S
C76   H75    0.96056       .     S
H75   C76    0.96056       .     S
H77   H75    0.46847       .     S
H75   H77    0.46847       .     S
H88   H75    0.46845       .     S
H75   H88    0.46845       .     S
H77   C76    0.96049       .     S
C76   H77    0.96049       .     S
H78   C76    0.96049       .     S
C76   H78    0.96049       .     S
H79   C76    0.96049       .     S
C76   H79    0.96049       .     S
H80   C76    0.96049       .     S
C76   H80    0.96049       .     S
H81   C76    0.96051       .     S
C76   H81    0.96051       .     S
H82   C76    0.96056       .     S
C76   H82    0.96056       .     S
H83   C76    0.96056       .     S
C76   H83    0.96056       .     S
H84   C76    0.96051       .     S
C76   H84    0.96051       .     S
H85   C76    0.96056       .     S
C76   H85    0.96056       .     S
C87   C76    1.40985       .     S
C76   C87    1.40985       .     S
H88   C76    0.96051       .     S
C76   H88    0.96051       .     S
H83   H78    0.46847       .     S
H78   H83    0.46847       .     S
H84   H78    0.46858       .     S
H78   H84    0.46858       .     S
H85   H79    0.46847       .     S
H79   H85    0.46847       .     S
H88   H79    0.46858       .     S
H79   H88    0.46858       .     S
H81   H80    0.46858       .     S
H80   H81    0.46858       .     S
H82   H80    0.46847       .     S
H80   H82    0.46847       .     S
H83   H81    0.46845       .     S
H81   H83    0.46845       .     S
H85   H84    0.46845       .     S
H84   H85    0.46845       .     S
C87   N86    1.10725       .     S
N86   C87    1.10725       .     S
C90   H89    0.96001       .     S
H89   C90    0.96001       .     S
H93   H89    0.46852       .     S
H89   H93    0.46852       .     S
H103  H89    0.46853       .     S
H89   H103   0.46853       .     S
H91   C90    0.96000       .     S
C90   H91    0.96000       .     S
H92   C90    0.96000       .     S
C90   H92    0.96000       .     S
H93   C90    0.96000       .     S
C90   H93    0.96000       .     S
H94   C90    0.96000       .     S
C90   H94    0.96000       .     S
H95   C90    0.96001       .     S
C90   H95    0.96001       .     S
H96   C90    0.96000       .     S
C90   H96    0.96000       .     S
H97   C90    0.96001       .     S
C90   H97    0.96001       .     S
H98   C90    0.96000       .     S
C90   H98    0.96000       .     S
C100  C90    1.43885       .     S
C90   C100   1.43885       .     S
H101  C90    0.96000       .     S
C90   H101   0.96000       .     S
H102  C90    0.96001       .     S
C90   H102   0.96001       .     S
H103  C90    0.96000       .     S
C90   H103   0.96000       .     S
H96   H91    0.46850       .     S
H91   H96    0.46850       .     S
H97   H91    0.46852       .     S
H91   H97    0.46852       .     S
H102  H92    0.46852       .     S
H92   H102   0.46852       .     S
H103  H92    0.46850       .     S
H92   H103   0.46850       .     S
H98   H93    0.46850       .     S
H93   H98    0.46850       .     S
H95   H94    0.46852       .     S
H94   H95    0.46852       .     S
H101  H94    0.46850       .     S
H94   H101   0.46850       .     S
H96   H95    0.46853       .     S
H95   H96    0.46853       .     S
H98   H97    0.46853       .     S
H97   H98    0.46853       .     S
C100  N99    1.13368       .     S
N99   C100   1.13368       .     S
H102  H101   0.46853       .     S
H101  H102   0.46853       .     S
