data_I
_chemical_name_common  '/data/user2/wty/HOF/MOFDiff/mofdiff/data/test/172-tpe-aa-2'
_cell_length_a 32.52000
_cell_length_b 12.47920
_cell_length_c  9.42650
_cell_angle_alpha 90.00000
_cell_angle_beta  90.00000
_cell_angle_gamma 90.00000
_space_group_name_H-M_alt      'P 1'


loop_
_space_group_symop_operation_xyz
  'x, y, z' 

loop_
_atom_site_label
_atom_site_fract_x
_atom_site_fract_y
_atom_site_fract_z
_atom_site_type_symbol
O0      0.5526   0.6478    0.255     O
H1     0.53875  0.69296  0.21363     H
C2       0.579   0.5711    0.467     C
H3     0.60355  0.60264  0.42856     H
H4     0.57949  0.49508  0.45084     H
H5     0.57762    0.585  0.56679     H
C6      0.5408   0.6203    0.393     C
H7     0.51853  0.56867  0.39002     H
H8     0.53155   0.6833  0.44352     H
O9      0.5422   0.8603   0.7466     O
H10    0.55072  0.83454  0.82103     H
C11     0.4724   0.8566    0.621     C
H12    0.47037  0.78937  0.57195     H
H13    0.48498  0.90874   0.5599     H
H14    0.44544  0.88054  0.64738     H
C15     0.4986   0.8425    0.754     C
H16    0.48762   0.8902  0.82555     H
H17    0.49434  0.76992  0.78741     H
loop_
_geom_bond_atom_site_label_1
_geom_bond_atom_site_label_2
_geom_bond_distance
_geom_bond_site_symmetry_2
_ccdc_geom_bond_type
O0    H1     0.82009       .     S
H1    O0     0.82009       .     S
O0    C6     1.39902       .     S
C6    O0     1.39902       .     S
C2    H3     0.96104       .     S
H3    C2     0.96104       .     S
C2    H4     0.96095       .     S
H4    C2     0.96095       .     S
C2    H5     0.95758       .     S
H5    C2     0.95758       .     S
C2    C6     1.55138       .     S
C6    C2     1.55138       .     S
C6    H7     0.96975       .     S
H7    C6     0.96975       .     S
C6    H8     0.96715       .     S
H8    C6     0.96715       .     S
O9    H10    0.81998       .     S
H10   O9     0.81998       .     S
O9    C15    1.43686       .     S
C15   O9     1.43686       .     S
C11   H12    0.96022       .     S
H12   C11    0.96022       .     S
C11   H13    0.96045       .     S
H13   C11    0.96045       .     S
C11   H14    0.95904       .     S
H14   C11    0.95904       .     S
C11   C15    1.52602       .     S
C15   C11    1.52602       .     S
C15   H16    0.96785       .     S
H16   C15    0.96785       .     S
C15   H17    0.96889       .     S
H17   C15    0.96889       .     S
H1    O0     0.82009       .     S
O0    H1     0.82009       .     S
C6    O0     1.39902       .     S
O0    C6     1.39902       .     S
H3    C2     0.96104       .     S
C2    H3     0.96104       .     S
H4    C2     0.96095       .     S
C2    H4     0.96095       .     S
H5    C2     0.95758       .     S
C2    H5     0.95758       .     S
C6    C2     1.55138       .     S
C2    C6     1.55138       .     S
H7    C6     0.96975       .     S
C6    H7     0.96975       .     S
H8    C6     0.96715       .     S
C6    H8     0.96715       .     S
H10   O9     0.81998       .     S
O9    H10    0.81998       .     S
C15   O9     1.43686       .     S
O9    C15    1.43686       .     S
H12   C11    0.96022       .     S
C11   H12    0.96022       .     S
H13   C11    0.96045       .     S
C11   H13    0.96045       .     S
H14   C11    0.95904       .     S
C11   H14    0.95904       .     S
C15   C11    1.52602       .     S
C11   C15    1.52602       .     S
H16   C15    0.96785       .     S
C15   H16    0.96785       .     S
H17   C15    0.96889       .     S
C15   H17    0.96889       .     S
