data_I
_chemical_name_common  '/data/user2/wty/HOF/MOFDiff/mofdiff/data/test/176_hof-zju-102'
_cell_length_a 17.00510
_cell_length_b 11.00690
_cell_length_c 21.49910
_cell_angle_alpha 90.00000
_cell_angle_beta  90.00000
_cell_angle_gamma 90.00000
_space_group_name_H-M_alt      'P 1'


loop_
_space_group_symop_operation_xyz
  'x, y, z' 

loop_
_atom_site_label
_atom_site_fract_x
_atom_site_fract_y
_atom_site_fract_z
_atom_site_type_symbol
Ge0    0.81576   0.7841     0.25    Ge
F1      0.7391   0.6783     0.25     F
F2       0.769   0.8642   0.3053     F
F3      0.8908   0.8929     0.25     F
F4      0.8536    0.718   0.3076     F
Cu5        0.5  0.56864  0.55987    Cu
O6         0.5    0.665   0.6486     O
H7     0.54926  0.66748  0.66825     H
N8      0.5813   0.6735   0.5175     N
N9      0.6594   0.8522   0.5124     N
N10     0.5805   0.5564   0.4197     N
N11     0.6617   0.6744    0.365     N
H12     0.6893  0.70111  0.33435     H
N13     0.7194   0.9178   0.4228     N
H14    0.73351  0.98403  0.44082     H
H15    0.73161  0.90524   0.3845     H
C16     0.6039   0.6527   0.4582     C
C17     0.6106    0.773   0.5435     C
H18    0.59752  0.79005  0.58457     H
C19     0.6795   0.8366   0.4534     C
C20     0.6554   0.7243   0.4234     C
C21      0.617    0.578   0.3658     C
H22    0.61096  0.52783  0.33133     H
loop_
_geom_bond_atom_site_label_1
_geom_bond_atom_site_label_2
_geom_bond_distance
_geom_bond_site_symmetry_2
_ccdc_geom_bond_type
H12   F1     2.01712       .     S
F1    H12    2.01712       .     S
H12   F2     2.33439       .     S
F2    H12    2.33439       .     S
H15   F2     1.87286       .     S
F2    H15    1.87286       .     S
Ge0   F1     1.74801       .     S
F1    Ge0    1.74801       .     S
Ge0   F2     1.68020       .     S
F2    Ge0    1.68020       .     S
Ge0   F3     1.74999       .     S
F3    Ge0    1.74999       .     S
Ge0   F4     1.57382       .     S
F4    Ge0    1.57382       .     S
Cu5   O6     2.18264       .     S
O6    Cu5    2.18264       .     S
Cu5   N8     2.01823       .     S
N8    Cu5    2.01823       .     S
O6    H7     0.93857       .     S
H7    O6     0.93857       .     S
N8    C16    1.35110       .     S
C16   N8     1.35110       .     S
N8    C17    1.32670       .     S
C17   N8     1.32670       .     S
N9    C17    1.37682       .     S
C17   N9     1.37682       .     S
N9    C19    1.32487       .     S
C19   N9     1.32487       .     S
N10   C16    1.40249       .     S
C16   N10    1.40249       .     S
N10   C21    1.33589       .     S
C21   N10    1.33589       .     S
N11   H12    0.86077       .     S
H12   N11    0.86077       .     S
N11   C20    1.37461       .     S
C20   N11    1.37461       .     S
N11   C21    1.30535       .     S
C21   N11    1.30535       .     S
N13   H14    0.85970       .     S
H14   N13    0.85970       .     S
N13   H15    0.86037       .     S
H15   N13    0.86037       .     S
N13   C19    1.30076       .     S
C19   N13    1.30076       .     S
C16   C20    1.39564       .     S
C20   C16    1.39564       .     S
C17   H18    0.92969       .     S
H18   C17    0.92969       .     S
C19   C20    1.45321       .     S
C20   C19    1.45321       .     S
C21   H22    0.92988       .     S
H22   C21    0.92988       .     S
F1    H12    2.01712       .     S
H12   F1     2.01712       .     S
F2    H12    2.33439       .     S
H12   F2     2.33439       .     S
F2    H15    1.87286       .     S
H15   F2     1.87286       .     S
F1    Ge0    1.74801       .     S
Ge0   F1     1.74801       .     S
F2    Ge0    1.68020       .     S
Ge0   F2     1.68020       .     S
F3    Ge0    1.74999       .     S
Ge0   F3     1.74999       .     S
F4    Ge0    1.57382       .     S
Ge0   F4     1.57382       .     S
O6    Cu5    2.18264       .     S
Cu5   O6     2.18264       .     S
N8    Cu5    2.01823       .     S
Cu5   N8     2.01823       .     S
H7    O6     0.93857       .     S
O6    H7     0.93857       .     S
C16   N8     1.35110       .     S
N8    C16    1.35110       .     S
C17   N8     1.32670       .     S
N8    C17    1.32670       .     S
C17   N9     1.37682       .     S
N9    C17    1.37682       .     S
C19   N9     1.32487       .     S
N9    C19    1.32487       .     S
C16   N10    1.40249       .     S
N10   C16    1.40249       .     S
C21   N10    1.33589       .     S
N10   C21    1.33589       .     S
H12   N11    0.86077       .     S
N11   H12    0.86077       .     S
C20   N11    1.37461       .     S
N11   C20    1.37461       .     S
C21   N11    1.30535       .     S
N11   C21    1.30535       .     S
H14   N13    0.85970       .     S
N13   H14    0.85970       .     S
H15   N13    0.86037       .     S
N13   H15    0.86037       .     S
C19   N13    1.30076       .     S
N13   C19    1.30076       .     S
C20   C16    1.39564       .     S
C16   C20    1.39564       .     S
H18   C17    0.92969       .     S
C17   H18    0.92969       .     S
C20   C19    1.45321       .     S
C19   C20    1.45321       .     S
H22   C21    0.92988       .     S
C21   H22    0.92988       .     S
