data_I
_chemical_name_common  '/data/user2/wty/HOF/MOFDiff/mofdiff/data/test/178_ptc-235-mecn'
_cell_length_a 29.86050
_cell_length_b 29.86050
_cell_length_c 29.86050
_cell_angle_alpha 90.00000
_cell_angle_beta  90.00000
_cell_angle_gamma 90.00000
_space_group_name_H-M_alt      'P 1'


loop_
_space_group_symop_operation_xyz
  'x, y, z' 

loop_
_atom_site_label
_atom_site_fract_x
_atom_site_fract_y
_atom_site_fract_z
_atom_site_type_symbol
N0      0.6961   0.6961   0.1961     N
H1     0.70039  0.66666  0.20254     H
N2      0.6253   0.6333   0.2229     N
N3      0.5618    0.605   0.1986     N
C4      0.5038   0.5635   0.1626     C
H5     0.51728  0.53821  0.17475     H
C6      0.4687   0.5574   0.1342     C
H7     0.46026  0.52892  0.12474     H
C8      0.5788   0.5748   0.2286     C
H9     0.56635  0.54773  0.23763     H
C10     0.6186   0.5935   0.2422     C
H11    0.63837  0.58014  0.26225     H
C12     0.5918   0.6408   0.1977     C
H13    0.58779  0.66669  0.18081     H
C14      0.497   0.6433   0.1625     C
H15    0.50636  0.67146  0.17185     H
C16     0.5206   0.6045   0.1746     C
C17     0.4596   0.6381   0.1362     C
H18    0.44277  0.66331  0.12895     H
C19     0.4457   0.5961   0.1197     C
N20     0.4067   0.5933   0.0933     N
Ti21   0.60638  0.60638  0.39362    Ti
O22    0.58846  0.65012  0.34589     O
O23    0.56058   0.5714  0.36871     O
O24    0.55119   0.6872  0.29349     O
C25      0.556   0.6542   0.3189     C
C26     0.5203   0.6173   0.3162     C
C27     0.4842   0.6238   0.2885     C
H28    0.48196  0.64989  0.27173     H
C29     0.5255   0.5765   0.3422     C
C30     0.4932   0.5433   0.3385     C
C31        0.5      0.5   0.3646     C
H32    0.52582  0.50406  0.38394     H
H33    0.47419  0.49594  0.38395     H
C34     0.4508    0.591   0.2857     C
C35     0.4549   0.5507    0.311     C
C36      0.418   0.5192   0.3084     C
H37    0.41974  0.49235  0.32403     H
C38     0.4099   0.5992   0.2611     C
H39    0.40589  0.62638  0.24654     H
C40     0.3779   0.5683   0.2591     C
H41    0.35295  0.57318  0.24112     H
C42     0.3813   0.5283   0.2838     C
H43    0.35785  0.50784  0.28304     H
N44        0.5      0.5      0.5     N
H45    0.48279  0.51721  0.48279     H
N46       0.75     0.75     0.25     N
H47    0.76721  0.73279  0.26721     H
H48    0.73279  0.76721  0.26721     H
H49    0.73279  0.73279  0.23279     H
N50     0.4419   0.5581   0.4419     N
C51     0.4189   0.5811   0.4189     C
C52     0.3906   0.6094   0.3906     C
H53    0.37574  0.59114  0.36873     H
H54    0.40886  0.63127  0.37574     H
H55    0.36873  0.62426  0.40886     H
loop_
_geom_bond_atom_site_label_1
_geom_bond_atom_site_label_2
_geom_bond_distance
_geom_bond_site_symmetry_2
_ccdc_geom_bond_type
H45   N50    2.11482       .     S
N50   H45    2.11482       .     S
H49   N0     1.89760       .     S
N0    H49    1.89760       .     S
N0    H1     0.90895       .     S
H1    N0     0.90895       .     S
N2    C10    1.33588       .     S
C10   N2     1.33588       .     S
N2    C12    1.27163       .     S
C12   N2     1.27163       .     S
N3    C8     1.36872       .     S
C8    N3     1.36872       .     S
N3    C12    1.39498       .     S
C12   N3     1.39498       .     S
N3    C16    1.42384       .     S
C16   N3     1.42384       .     S
C4    H5     0.92948       .     S
H5    C4     0.92948       .     S
C4    C6     1.36047       .     S
C6    C4     1.36047       .     S
C4    C16    1.37074       .     S
C16   C4     1.37074       .     S
C6    H7     0.93088       .     S
H7    C6     0.93088       .     S
C6    C19    1.41229       .     S
C19   C6     1.41229       .     S
C8    H9     0.92968       .     S
H9    C8     0.92968       .     S
C8    C10    1.37446       .     S
C10   C8     1.37446       .     S
C10   H11    0.93064       .     S
H11   C10    0.93064       .     S
C12   H13    0.93079       .     S
H13   C12    0.93079       .     S
C14   H15    0.92905       .     S
H15   C14    0.92905       .     S
C14   C16    1.40338       .     S
C16   C14    1.40338       .     S
C14   C17    1.37407       .     S
C17   C14    1.37407       .     S
C17   H18    0.93065       .     S
H18   C17    0.93065       .     S
C17   C19    1.40993       .     S
C19   C17    1.40993       .     S
C19   N20    1.40877       .     S
N20   C19    1.40877       .     S
Ti21  O22    2.00588       .     S
O22   Ti21   2.00588       .     S
Ti21  O23    1.87474       .     S
O23   Ti21   1.87474       .     S
O22   C25    1.26644       .     S
C25   O22    1.26644       .     S
O23   C29    1.32178       .     S
C29   O23    1.32178       .     S
O24   C25    1.25194       .     S
C25   O24    1.25194       .     S
C25   C26    1.53525       .     S
C26   C25    1.53525       .     S
C26   C27    1.37253       .     S
C27   C26    1.37253       .     S
C26   C29    1.45298       .     S
C29   C26    1.45298       .     S
C27   H28    0.92853       .     S
H28   C27    0.92853       .     S
C27   C34    1.40034       .     S
C34   C27    1.40034       .     S
C29   C30    1.38754       .     S
C30   C29    1.38754       .     S
C30   C31    1.52328       .     S
C31   C30    1.52328       .     S
C30   C35    1.42516       .     S
C35   C30    1.42516       .     S
C31   H32    0.97090       .     S
H32   C31    0.97090       .     S
C31   H33    0.97084       .     S
H33   C31    0.97084       .     S
C34   C35    1.42613       .     S
C35   C34    1.42613       .     S
C34   C38    1.44607       .     S
C38   C34    1.44607       .     S
C35   C36    1.45081       .     S
C36   C35    1.45081       .     S
C36   H37    0.92916       .     S
H37   C36    0.92916       .     S
C36   C42    1.34699       .     S
C42   C36    1.34699       .     S
C38   H39    0.92848       .     S
H39   C38    0.92848       .     S
C38   C40    1.32965       .     S
C40   C38    1.32965       .     S
C40   H41    0.92981       .     S
H41   C40    0.92981       .     S
C40   C42    1.40746       .     S
C42   C40    1.40746       .     S
C42   H43    0.92957       .     S
H43   C42    0.92957       .     S
N44   H45    0.89010       .     S
H45   N44    0.89010       .     S
N46   H47    0.89010       .     S
H47   N46    0.89010       .     S
N46   H48    0.89010       .     S
H48   N46    0.89010       .     S
N46   H49    0.89010       .     S
H49   N46    0.89010       .     S
N50   C51    1.18956       .     S
C51   N50    1.18956       .     S
C51   C52    1.46367       .     S
C52   C51    1.46367       .     S
C52   H53    0.95952       .     S
H53   C52    0.95952       .     S
C52   H54    0.95951       .     S
H54   C52    0.95951       .     S
C52   H55    0.95951       .     S
H55   C52    0.95951       .     S
N50   H45    2.11482       .     S
H45   N50    2.11482       .     S
N0    H49    1.89760       .     S
H49   N0     1.89760       .     S
H1    N0     0.90895       .     S
N0    H1     0.90895       .     S
C10   N2     1.33588       .     S
N2    C10    1.33588       .     S
C12   N2     1.27163       .     S
N2    C12    1.27163       .     S
C8    N3     1.36872       .     S
N3    C8     1.36872       .     S
C12   N3     1.39498       .     S
N3    C12    1.39498       .     S
C16   N3     1.42384       .     S
N3    C16    1.42384       .     S
H5    C4     0.92948       .     S
C4    H5     0.92948       .     S
C6    C4     1.36047       .     S
C4    C6     1.36047       .     S
C16   C4     1.37074       .     S
C4    C16    1.37074       .     S
H7    C6     0.93088       .     S
C6    H7     0.93088       .     S
C19   C6     1.41229       .     S
C6    C19    1.41229       .     S
H9    C8     0.92968       .     S
C8    H9     0.92968       .     S
C10   C8     1.37446       .     S
C8    C10    1.37446       .     S
H11   C10    0.93064       .     S
C10   H11    0.93064       .     S
H13   C12    0.93079       .     S
C12   H13    0.93079       .     S
H15   C14    0.92905       .     S
C14   H15    0.92905       .     S
C16   C14    1.40338       .     S
C14   C16    1.40338       .     S
C17   C14    1.37407       .     S
C14   C17    1.37407       .     S
H18   C17    0.93065       .     S
C17   H18    0.93065       .     S
C19   C17    1.40993       .     S
C17   C19    1.40993       .     S
N20   C19    1.40877       .     S
C19   N20    1.40877       .     S
O22   Ti21   2.00588       .     S
Ti21  O22    2.00588       .     S
O23   Ti21   1.87474       .     S
Ti21  O23    1.87474       .     S
C25   O22    1.26644       .     S
O22   C25    1.26644       .     S
C29   O23    1.32178       .     S
O23   C29    1.32178       .     S
C25   O24    1.25194       .     S
O24   C25    1.25194       .     S
C26   C25    1.53525       .     S
C25   C26    1.53525       .     S
C27   C26    1.37253       .     S
C26   C27    1.37253       .     S
C29   C26    1.45298       .     S
C26   C29    1.45298       .     S
H28   C27    0.92853       .     S
C27   H28    0.92853       .     S
C34   C27    1.40034       .     S
C27   C34    1.40034       .     S
C30   C29    1.38754       .     S
C29   C30    1.38754       .     S
C31   C30    1.52328       .     S
C30   C31    1.52328       .     S
C35   C30    1.42516       .     S
C30   C35    1.42516       .     S
H32   C31    0.97090       .     S
C31   H32    0.97090       .     S
H33   C31    0.97084       .     S
C31   H33    0.97084       .     S
C35   C34    1.42613       .     S
C34   C35    1.42613       .     S
C38   C34    1.44607       .     S
C34   C38    1.44607       .     S
C36   C35    1.45081       .     S
C35   C36    1.45081       .     S
H37   C36    0.92916       .     S
C36   H37    0.92916       .     S
C42   C36    1.34699       .     S
C36   C42    1.34699       .     S
H39   C38    0.92848       .     S
C38   H39    0.92848       .     S
C40   C38    1.32965       .     S
C38   C40    1.32965       .     S
H41   C40    0.92981       .     S
C40   H41    0.92981       .     S
C42   C40    1.40746       .     S
C40   C42    1.40746       .     S
H43   C42    0.92957       .     S
C42   H43    0.92957       .     S
H45   N44    0.89010       .     S
N44   H45    0.89010       .     S
H47   N46    0.89010       .     S
N46   H47    0.89010       .     S
H48   N46    0.89010       .     S
N46   H48    0.89010       .     S
H49   N46    0.89010       .     S
N46   H49    0.89010       .     S
C51   N50    1.18956       .     S
N50   C51    1.18956       .     S
C52   C51    1.46367       .     S
C51   C52    1.46367       .     S
H53   C52    0.95952       .     S
C52   H53    0.95952       .     S
H54   C52    0.95951       .     S
C52   H54    0.95951       .     S
H55   C52    0.95951       .     S
C52   H55    0.95951       .     S
