data_I
_chemical_name_common  '/data/user2/wty/HOF/MOFDiff/mofdiff/data/test/178_ptc-235'
_cell_length_a 29.68160
_cell_length_b 29.68160
_cell_length_c 29.68160
_cell_angle_alpha 90.00000
_cell_angle_beta  90.00000
_cell_angle_gamma 90.00000
_space_group_name_H-M_alt      'P 1'


loop_
_space_group_symop_operation_xyz
  'x, y, z' 

loop_
_atom_site_label
_atom_site_fract_x
_atom_site_fract_y
_atom_site_fract_z
_atom_site_type_symbol
Ti0    0.35701  0.14299  0.35701    Ti
O1     0.40485  0.16095   0.4017     O
O2     0.38151  0.18951  0.32192     O
O3     0.45776  0.19856  0.43801     O
C4       0.409   0.2237   0.3268     C
C5      0.4355   0.2279   0.3674     C
C6      0.4325   0.1936    0.405     C
C7     0.41371   0.2563  0.29312     C
C8      0.3856     0.25     0.25     C
H9     0.36629  0.27609  0.24618     H
H10    0.36629  0.22391  0.25382     H
C11     0.4643   0.2633   0.3723     C
H12     0.4819   0.2653  0.39812     H
C13     0.4679   0.2969   0.3392     C
C14     0.4415   0.2932   0.3007     C
C15     0.4436   0.3309   0.2683     C
H16    0.42716  0.32933  0.24163     H
C17     0.4938   0.3381   0.3471     C
H18    0.51038  0.34086  0.37354     H
C19     0.4688   0.3669   0.2767     C
H20    0.47006  0.38999  0.25554     H
C21     0.4944    0.371   0.3179     C
H22      0.511  0.39696  0.32369     H
N23        0.5      0.0      0.5     N
H24    0.48269  0.01731  0.51731     H
H25    0.51731  0.01731  0.48269     H
H26    0.48269  0.98269  0.48269     H
N27     0.5539   0.0539   0.4461     N
H28    0.57118  0.07061  0.46401     H
H29    0.57118  0.03599  0.42939     H
H30    0.53655  0.07061  0.42939     H
N31     0.5525   0.1862   0.3554     N
N32     0.5252   0.1233   0.3829     N
C33     0.5902   0.2442   0.3122     C
H34    0.57855  0.23107  0.28628     H
C35     0.5236   0.1684   0.3247     C
H36    0.51619  0.17992  0.29653     H
C37     0.6181   0.2787   0.3081     C
H38    0.62947  0.28568  0.27971     H
C39     0.5078   0.1302    0.344     C
H40    0.48683  0.11119  0.33056     H
C41     0.5531   0.1574   0.3926     C
H42    0.56957   0.1611  0.41897     H
C43     0.5881   0.2515   0.3924     C
H44    0.57699   0.2435  0.42061     H
C45     0.5773   0.2268   0.3541     C
C46     0.6172   0.2901   0.3869     C
H47    0.62692  0.30563   0.4123     H
C48     0.6311   0.3046   0.3447     C
N49     0.6592   0.3408   0.3408     N
loop_
_geom_bond_atom_site_label_1
_geom_bond_atom_site_label_2
_geom_bond_distance
_geom_bond_site_symmetry_2
_ccdc_geom_bond_type
H25   N27    1.88109       .     S
N27   H25    1.88109       .     S
Ti0   O1     2.01495       .     S
O1    Ti0    2.01495       .     S
Ti0   O2     1.87621       .     S
O2    Ti0    1.87621       .     S
O1    C6     1.27370       .     S
C6    O1     1.27370       .     S
O2    C4     1.31019       .     S
C4    O2     1.31019       .     S
O3    C6     1.24250       .     S
C6    O3     1.24250       .     S
C4    C5     1.44445       .     S
C5    C4     1.44445       .     S
C4    C7     1.39828       .     S
C7    C4     1.39828       .     S
C5    C6     1.51325       .     S
C6    C5     1.51325       .     S
C5    C11    1.36232       .     S
C11   C5     1.36232       .     S
C7    C8     1.53921       .     S
C8    C7     1.53921       .     S
C7    C14    1.38945       .     S
C14   C7     1.38945       .     S
C8    H9     0.97007       .     S
H9    C8     0.97007       .     S
C8    H10    0.97007       .     S
H10   C8     0.97007       .     S
C11   H12    0.92939       .     S
H12   C11    0.92939       .     S
C11   C13    1.40402       .     S
C13   C11    1.40402       .     S
C13   C14    1.38994       .     S
C14   C13    1.38994       .     S
C13   C17    1.46335       .     S
C17   C13    1.46335       .     S
C14   C15    1.47678       .     S
C15   C14    1.47678       .     S
C15   H16    0.93109       .     S
H16   C15    0.93109       .     S
C15   C19    1.32793       .     S
C19   C15    1.32793       .     S
C17   H18    0.92993       .     S
H18   C17    0.92993       .     S
C17   C21    1.30579       .     S
C21   C17    1.30579       .     S
C19   H20    0.93036       .     S
H20   C19    0.93036       .     S
C19   C21    1.44486       .     S
C21   C19    1.44486       .     S
C21   H22    0.93060       .     S
H22   C21    0.93060       .     S
N23   H24    0.88991       .     S
H24   N23    0.88991       .     S
N23   H25    0.88991       .     S
H25   N23    0.88991       .     S
N23   H26    0.88991   1_545     S
H26   N23    0.88991   1_565     S
N27   H28    0.88975       .     S
H28   N27    0.88975       .     S
N27   H29    0.88975       .     S
H29   N27    0.88975       .     S
N27   H30    0.87017       .     S
H30   N27    0.87017       .     S
N31   C35    1.35841       .     S
C35   N31    1.35841       .     S
N31   C41    1.39650       .     S
C41   N31    1.39650       .     S
N31   C45    1.41264       .     S
C45   N31    1.41264       .     S
N32   C39    1.28133       .     S
C39   N32    1.28133       .     S
N32   C41    1.33907       .     S
C41   N32    1.33907       .     S
C33   H34    0.92917       .     S
H34   C33    0.92917       .     S
C33   C37    1.32257       .     S
C37   C33    1.32257       .     S
C33   C45    1.40001       .     S
C45   C33    1.40001       .     S
C35   H36    0.92973       .     S
H36   C35    0.92973       .     S
C35   C39    1.35414       .     S
C39   C35    1.35414       .     S
C37   H38    0.93107       .     S
H38   C37    0.93107       .     S
C37   C48    1.38565       .     S
C48   C37    1.38565       .     S
C39   H40    0.93001       .     S
H40   C39    0.93001       .     S
C41   H42    0.92934       .     S
H42   C41    0.92934       .     S
C43   H44    0.93071       .     S
H44   C43    0.93071       .     S
C43   C45    1.39017       .     S
C45   C43    1.39017       .     S
C43   C46    1.44407       .     S
C46   C43    1.44407       .     S
C46   H47    0.92957       .     S
H47   C46    0.92957       .     S
C46   C48    1.38721       .     S
C48   C46    1.38721       .     S
C48   N49    1.36511       .     S
N49   C48    1.36511       .     S
N27   H25    1.88109       .     S
H25   N27    1.88109       .     S
O1    Ti0    2.01495       .     S
Ti0   O1     2.01495       .     S
O2    Ti0    1.87621       .     S
Ti0   O2     1.87621       .     S
C6    O1     1.27370       .     S
O1    C6     1.27370       .     S
C4    O2     1.31019       .     S
O2    C4     1.31019       .     S
C6    O3     1.24250       .     S
O3    C6     1.24250       .     S
C5    C4     1.44445       .     S
C4    C5     1.44445       .     S
C7    C4     1.39828       .     S
C4    C7     1.39828       .     S
C6    C5     1.51325       .     S
C5    C6     1.51325       .     S
C11   C5     1.36232       .     S
C5    C11    1.36232       .     S
C8    C7     1.53921       .     S
C7    C8     1.53921       .     S
C14   C7     1.38945       .     S
C7    C14    1.38945       .     S
H9    C8     0.97007       .     S
C8    H9     0.97007       .     S
H10   C8     0.97007       .     S
C8    H10    0.97007       .     S
H12   C11    0.92939       .     S
C11   H12    0.92939       .     S
C13   C11    1.40402       .     S
C11   C13    1.40402       .     S
C14   C13    1.38994       .     S
C13   C14    1.38994       .     S
C17   C13    1.46335       .     S
C13   C17    1.46335       .     S
C15   C14    1.47678       .     S
C14   C15    1.47678       .     S
H16   C15    0.93109       .     S
C15   H16    0.93109       .     S
C19   C15    1.32793       .     S
C15   C19    1.32793       .     S
H18   C17    0.92993       .     S
C17   H18    0.92993       .     S
C21   C17    1.30579       .     S
C17   C21    1.30579       .     S
H20   C19    0.93036       .     S
C19   H20    0.93036       .     S
C21   C19    1.44486       .     S
C19   C21    1.44486       .     S
H22   C21    0.93060       .     S
C21   H22    0.93060       .     S
H24   N23    0.88991       .     S
N23   H24    0.88991       .     S
H25   N23    0.88991       .     S
N23   H25    0.88991       .     S
H26   N23    0.88991   1_565     S
N23   H26    0.88991   1_545     S
H28   N27    0.88975       .     S
N27   H28    0.88975       .     S
H29   N27    0.88975       .     S
N27   H29    0.88975       .     S
H30   N27    0.87017       .     S
N27   H30    0.87017       .     S
C35   N31    1.35841       .     S
N31   C35    1.35841       .     S
C41   N31    1.39650       .     S
N31   C41    1.39650       .     S
C45   N31    1.41264       .     S
N31   C45    1.41264       .     S
C39   N32    1.28133       .     S
N32   C39    1.28133       .     S
C41   N32    1.33907       .     S
N32   C41    1.33907       .     S
H34   C33    0.92917       .     S
C33   H34    0.92917       .     S
C37   C33    1.32257       .     S
C33   C37    1.32257       .     S
C45   C33    1.40001       .     S
C33   C45    1.40001       .     S
H36   C35    0.92973       .     S
C35   H36    0.92973       .     S
C39   C35    1.35414       .     S
C35   C39    1.35414       .     S
H38   C37    0.93107       .     S
C37   H38    0.93107       .     S
C48   C37    1.38565       .     S
C37   C48    1.38565       .     S
H40   C39    0.93001       .     S
C39   H40    0.93001       .     S
H42   C41    0.92934       .     S
C41   H42    0.92934       .     S
H44   C43    0.93071       .     S
C43   H44    0.93071       .     S
C45   C43    1.39017       .     S
C43   C45    1.39017       .     S
C46   C43    1.44407       .     S
C43   C46    1.44407       .     S
H47   C46    0.92957       .     S
C46   H47    0.92957       .     S
C48   C46    1.38721       .     S
C46   C48    1.38721       .     S
N49   C48    1.36511       .     S
C48   N49    1.36511       .     S
