data_I
_chemical_name_common  '/data/user2/wty/HOF/MOFDiff/mofdiff/data/test/180_hof-6'
_cell_length_a 31.43000
_cell_length_b  8.63700
_cell_length_c 14.93500
_cell_angle_alpha 90.00000
_cell_angle_beta  90.00000
_cell_angle_gamma 90.00000
_space_group_name_H-M_alt      'P 1'


loop_
_space_group_symop_operation_xyz
  'x, y, z' 

loop_
_atom_site_label
_atom_site_fract_x
_atom_site_fract_y
_atom_site_fract_z
_atom_site_type_symbol
O0     0.20239   0.3203   0.0112     O
O1     0.23767   0.1723  0.10877     O
H2      0.2548  0.16526  0.06578     H
N3     0.06626      0.5      0.5     N
N4         0.0   0.3943   0.3775     N
H5         0.0   0.4506  0.42659     H
C6     0.07743    0.373   0.3531     C
C7     0.09187   0.4452   0.4319     C
C8     0.13513   0.4689   0.4585     C
H9      0.1596  0.44505  0.42381     H
C10    0.03461   0.3422    0.332     C
C11    0.02126   0.2456    0.258     C
H12    0.03927  0.19237  0.21722     H
C13    0.17257   0.2777   0.1545     C
C14    0.14593   0.2424   0.3042     C
H15    0.14909  0.19925  0.36237     H
C16    0.11004   0.3323   0.2839     C
C17    0.20571    0.258   0.0855     C
C18    0.10558   0.3889   0.1975     C
H19    0.08105  0.44753  0.18228     H
C20    0.17683   0.2163   0.2396     C
H21    0.20113  0.15576  0.25397     H
C22     0.1363   0.3613   0.1333     C
H23    0.13256  0.39993  0.07425     H
loop_
_geom_bond_atom_site_label_1
_geom_bond_atom_site_label_2
_geom_bond_distance
_geom_bond_site_symmetry_2
_ccdc_geom_bond_type
H5    N3     2.39189       .     S
N3    H5     2.39189       .     S
O0    C17    1.23766       .     S
C17   O0     1.23766       .     S
O1    H2     0.84012       .     S
H2    O1     0.84012       .     S
O1    C17    1.29526       .     S
C17   O1     1.29526       .     S
N3    C7     1.38071       .     S
C7    N3     1.38071       .     S
N4    H5     0.87976       .     S
H5    N4     0.87976       .     S
N4    C10    1.35925       .     S
C10   N4     1.35925       .     S
C6    C7     1.40708       .     S
C7    C6     1.40708       .     S
C6    C10    1.40760       .     S
C10   C6     1.40760       .     S
C6    C16    1.49739       .     S
C16   C6     1.49739       .     S
C7    C8     1.43122       .     S
C8    C7     1.43122       .     S
C8    H9     0.94993       .     S
H9    C8     0.94993       .     S
C10   C11    1.44693       .     S
C11   C10    1.44693       .     S
C11   H12    0.95012       .     S
H12   C11    0.95012       .     S
C13   C17    1.47507       .     S
C17   C13    1.47507       .     S
C13   C20    1.38366       .     S
C20   C13    1.38366       .     S
C13   C22    1.38605       .     S
C22   C13    1.38605       .     S
C14   H15    0.95054       .     S
H15   C14    0.95054       .     S
C14   C16    1.40259       .     S
C16   C14    1.40259       .     S
C14   C20    1.38739       .     S
C20   C14    1.38739       .     S
C16   C18    1.38698       .     S
C18   C16    1.38698       .     S
C18   H19    0.95000       .     S
H19   C18    0.95000       .     S
C18   C22    1.38146       .     S
C22   C18    1.38146       .     S
C20   H21    0.95015       .     S
H21   C20    0.95015       .     S
C22   H23    0.95021       .     S
H23   C22    0.95021       .     S
N3    H5     2.39189       .     S
H5    N3     2.39189       .     S
C17   O0     1.23766       .     S
O0    C17    1.23766       .     S
H2    O1     0.84012       .     S
O1    H2     0.84012       .     S
C17   O1     1.29526       .     S
O1    C17    1.29526       .     S
C7    N3     1.38071       .     S
N3    C7     1.38071       .     S
H5    N4     0.87976       .     S
N4    H5     0.87976       .     S
C10   N4     1.35925       .     S
N4    C10    1.35925       .     S
C7    C6     1.40708       .     S
C6    C7     1.40708       .     S
C10   C6     1.40760       .     S
C6    C10    1.40760       .     S
C16   C6     1.49739       .     S
C6    C16    1.49739       .     S
C8    C7     1.43122       .     S
C7    C8     1.43122       .     S
H9    C8     0.94993       .     S
C8    H9     0.94993       .     S
C11   C10    1.44693       .     S
C10   C11    1.44693       .     S
H12   C11    0.95012       .     S
C11   H12    0.95012       .     S
C17   C13    1.47507       .     S
C13   C17    1.47507       .     S
C20   C13    1.38366       .     S
C13   C20    1.38366       .     S
C22   C13    1.38605       .     S
C13   C22    1.38605       .     S
H15   C14    0.95054       .     S
C14   H15    0.95054       .     S
C16   C14    1.40259       .     S
C14   C16    1.40259       .     S
C20   C14    1.38739       .     S
C14   C20    1.38739       .     S
C18   C16    1.38698       .     S
C16   C18    1.38698       .     S
H19   C18    0.95000       .     S
C18   H19    0.95000       .     S
C22   C18    1.38146       .     S
C18   C22    1.38146       .     S
H21   C20    0.95015       .     S
C20   H21    0.95015       .     S
H23   C22    0.95021       .     S
C22   H23    0.95021       .     S
