data_I
_chemical_name_common  '/data/user2/wty/HOF/MOFDiff/mofdiff/data/test/182_ihof-4'
_cell_length_a  7.55200
_cell_length_b 14.64100
_cell_length_c  9.83700
_cell_angle_alpha 90.00000
_cell_angle_beta  90.74000
_cell_angle_gamma 90.00000
_space_group_name_H-M_alt      'P 1'


loop_
_space_group_symop_operation_xyz
  'x, y, z' 

loop_
_atom_site_label
_atom_site_fract_x
_atom_site_fract_y
_atom_site_fract_z
_atom_site_type_symbol
C0      0.0405  0.49827   0.0688     C
C1      0.1854    0.416   0.2501     C
H2      0.2345    0.362   0.2832     H
C3      0.1116  0.41848   0.1225     C
H4       0.109   0.3654   0.0705     H
N5       0.187  0.49117  0.32731     N
C6      0.0476  0.57487   0.1531     C
H7      0.0035   0.6303   0.1212     H
C8      0.1178     0.57   0.2811     C
H9      0.1177   0.6214   0.3367     H
N10      0.253  0.48781  0.46088     N
H11     0.3113   0.4375   0.4728     H
H12     0.3237   0.5335   0.4746     H
S13    0.04187  0.77495  0.60244     S
C14     0.0235  0.96306  0.54411     C
O15     0.2325  0.77961   0.6195     O
C16     0.9807    0.872  0.50181     C
O17     0.9497  0.78511  0.72967     O
C18     0.1124  0.98266  0.66908     C
H19     0.1423   0.9351   0.7277     H
O20     0.9859  0.69544  0.52611     O
C21     0.1068  0.14352  0.61877     C
H22      0.135   0.2029   0.6445     H
C23     0.1541  0.07017  0.70398     C
H24     0.2147   0.0815   0.7851     H
O25      0.473  0.65755   0.4948     O
H26     0.4835   0.6798   0.4155     H
H27     0.4106   0.6964    0.537     H
loop_
_geom_bond_atom_site_label_1
_geom_bond_atom_site_label_2
_geom_bond_distance
_geom_bond_site_symmetry_2
_ccdc_geom_bond_type
H12   O25    2.14560       .     S
O25   H12    2.14560       .     S
H27   O15    1.99501       .     S
O15   H27    1.99501       .     S
C0    C3     1.38735       .     S
C3    C0     1.38735       .     S
C0    C6     1.39541       .     S
C6    C0     1.39541       .     S
C1    H2     0.93030       .     S
H2    C1     0.93030       .     S
C1    C3     1.36726       .     S
C3    C1     1.36726       .     S
C1    N5     1.33717       .     S
N5    C1     1.33717       .     S
C3    H4     0.93045       .     S
H4    C3     0.93045       .     S
N5    C8     1.34375       .     S
C8    N5     1.34375       .     S
N5    N10    1.40012       .     S
N10   N5     1.40012       .     S
C6    H7     0.93022       .     S
H7    C6     0.93022       .     S
C6    C8     1.36174       .     S
C8    C6     1.36174       .     S
C8    H9     0.93031       .     S
H9    C8     0.93031       .     S
N10   H11    0.86535       .     S
H11   N10    0.86535       .     S
N10   H12    0.86540       .     S
H12   N10    0.86540       .     S
S13   O15    1.44884       .     S
O15   S13    1.44884       .     S
S13   C16    1.78898   1_455     S
C16   S13    1.78898   1_655     S
S13   O17    1.44760   1_455     S
O17   S13    1.44760   1_655     S
S13   O20    1.44547   1_455     S
O20   S13    1.44547   1_655     S
C14   C16    1.43234   1_455     S
C16   C14    1.43234   1_655     S
C14   C18    1.42233       .     S
C18   C14    1.42233       .     S
C18   H19    0.93006       .     S
H19   C18    0.93006       .     S
C18   C23    1.36228   1_565     S
C23   C18    1.36228   1_545     S
C21   H22    0.92944       .     S
H22   C21    0.92944       .     S
C21   C23    1.40562       .     S
C23   C21    1.40562       .     S
C23   H24    0.92968       .     S
H24   C23    0.92968       .     S
O25   H26    0.85001       .     S
H26   O25    0.85001       .     S
O25   H27    0.85029       .     S
H27   O25    0.85029       .     S
O25   H12    2.14560       .     S
H12   O25    2.14560       .     S
O15   H27    1.99501       .     S
H27   O15    1.99501       .     S
C3    C0     1.38735       .     S
C0    C3     1.38735       .     S
C6    C0     1.39541       .     S
C0    C6     1.39541       .     S
H2    C1     0.93030       .     S
C1    H2     0.93030       .     S
C3    C1     1.36726       .     S
C1    C3     1.36726       .     S
N5    C1     1.33717       .     S
C1    N5     1.33717       .     S
H4    C3     0.93045       .     S
C3    H4     0.93045       .     S
C8    N5     1.34375       .     S
N5    C8     1.34375       .     S
N10   N5     1.40012       .     S
N5    N10    1.40012       .     S
H7    C6     0.93022       .     S
C6    H7     0.93022       .     S
C8    C6     1.36174       .     S
C6    C8     1.36174       .     S
H9    C8     0.93031       .     S
C8    H9     0.93031       .     S
H11   N10    0.86535       .     S
N10   H11    0.86535       .     S
H12   N10    0.86540       .     S
N10   H12    0.86540       .     S
O15   S13    1.44884       .     S
S13   O15    1.44884       .     S
C16   S13    1.78898   1_655     S
S13   C16    1.78898   1_455     S
O17   S13    1.44760   1_655     S
S13   O17    1.44760   1_455     S
O20   S13    1.44547   1_655     S
S13   O20    1.44547   1_455     S
C16   C14    1.43234   1_655     S
C14   C16    1.43234   1_455     S
C18   C14    1.42233       .     S
C14   C18    1.42233       .     S
H19   C18    0.93006       .     S
C18   H19    0.93006       .     S
C23   C18    1.36228   1_545     S
C18   C23    1.36228   1_565     S
H22   C21    0.92944       .     S
C21   H22    0.92944       .     S
C23   C21    1.40562       .     S
C21   C23    1.40562       .     S
H24   C23    0.92968       .     S
C23   H24    0.92968       .     S
H26   O25    0.85001       .     S
O25   H26    0.85001       .     S
H27   O25    0.85029       .     S
O25   H27    0.85029       .     S
