data_I
_chemical_name_common  '/data/user2/wty/HOF/MOFDiff/mofdiff/data/test/182_ihof-3'
_cell_length_a  7.14400
_cell_length_b 18.38200
_cell_length_c  8.54000
_cell_angle_alpha 90.00000
_cell_angle_beta  106.52300
_cell_angle_gamma 90.00000
_space_group_name_H-M_alt      'P 1'


loop_
_space_group_symop_operation_xyz
  'x, y, z' 

loop_
_atom_site_label
_atom_site_fract_x
_atom_site_fract_y
_atom_site_fract_z
_atom_site_type_symbol
O0      0.1867   0.7173   0.5868     O
H1      0.1995   0.7432   0.6716     H
H2       0.099   0.6865   0.5898     H
S3     0.21622     0.87  0.92845     S
O4      0.3873  0.90353    0.037     O
O5      0.0593   0.8595   0.0003     O
O6      0.2668  0.80343   0.8597     O
C7      0.9988   0.9642   0.4762     C
C8      0.0694   0.9109   0.6093     C
H9      0.0722   0.8617   0.5847     H
C10     0.1291   0.9327   0.7642     C
C11     0.8764   0.9922   0.1958     C
H12     0.8347   0.9775   0.0871     H
C13     0.9422   0.9416   0.3156     C
H14     0.9489   0.8927   0.2895     H
N15     0.1769  0.74049   0.2429     N
H16     0.1036   0.7743   0.1856     H
H17     0.1684   0.7426   0.3422     H
N18     0.1177  0.67269   0.1739     N
C19     0.0246  0.53679    0.037     C
C20     0.0986   0.5458   0.2049     C
H21     0.1171   0.5055   0.2735     H
C22     0.1446    0.614   0.2699     C
H23     0.1951   0.6194   0.3824     H
C24     0.0457   0.6665   0.0104     C
H25     0.0271   0.7077   0.9446     H
C26     0.0004   0.5995   0.9421     C
H27     0.9521   0.5955   0.8292     H
loop_
_geom_bond_atom_site_label_1
_geom_bond_atom_site_label_2
_geom_bond_distance
_geom_bond_site_symmetry_2
_ccdc_geom_bond_type
H1    O6     1.89686       .     S
O6    H1     1.89686       .     S
H16   O5     2.18456       .     S
O5    H16    2.18456       .     S
H17   O0     2.10748       .     S
O0    H17    2.10748       .     S
O0    H1     0.84960       .     S
H1    O0     0.84960       .     S
O0    H2     0.85022       .     S
H2    O0     0.85022       .     S
S3    O4     1.44518   1_556     S
O4    S3     1.44518   1_554     S
S3    O5     1.43588   1_556     S
O5    S3     1.43588   1_554     S
S3    O6     1.44685       .     S
O6    S3     1.44685       .     S
S3    C10    1.78514       .     S
C10   S3     1.78514       .     S
C7    C8     1.47657   1_655     S
C8    C7     1.47657   1_455     S
C7    C13    1.37903       .     S
C13   C7     1.37903       .     S
C8    H9     0.92998       .     S
H9    C8     0.92998       .     S
C8    C10    1.33097       .     S
C10   C8     1.33097       .     S
C11   H12    0.93070       .     S
H12   C11    0.93070       .     S
C11   C13    1.36355       .     S
C13   C11    1.36355       .     S
C13   H14    0.93061       .     S
H14   C13    0.93061       .     S
N15   H16    0.86843       .     S
H16   N15    0.86843       .     S
N15   H17    0.86812       .     S
H17   N15    0.86812       .     S
N15   N18    1.39198       .     S
N18   N15    1.39198       .     S
N18   C22    1.33542       .     S
C22   N18    1.33542       .     S
N18   C24    1.34857       .     S
C24   N18    1.34857       .     S
C19   C20    1.38986       .     S
C20   C19    1.38986       .     S
C19   C26    1.39133   1_554     S
C26   C19    1.39134   1_556     S
C20   H21    0.93028       .     S
H21   C20    0.93028       .     S
C20   C22    1.37259       .     S
C22   C20    1.37259       .     S
C22   H23    0.93054       .     S
H23   C22    0.93054       .     S
C24   H25    0.92979   1_554     S
H25   C24    0.92979   1_556     S
C24   C26    1.36176   1_554     S
C26   C24    1.36176   1_556     S
C26   H27    0.92997   1_455     S
H27   C26    0.92997   1_655     S
O6    H1     1.89686       .     S
H1    O6     1.89686       .     S
O5    H16    2.18456       .     S
H16   O5     2.18456       .     S
O0    H17    2.10748       .     S
H17   O0     2.10748       .     S
H1    O0     0.84960       .     S
O0    H1     0.84960       .     S
H2    O0     0.85022       .     S
O0    H2     0.85022       .     S
O4    S3     1.44518   1_554     S
S3    O4     1.44518   1_556     S
O5    S3     1.43588   1_554     S
S3    O5     1.43588   1_556     S
O6    S3     1.44685       .     S
S3    O6     1.44685       .     S
C10   S3     1.78514       .     S
S3    C10    1.78514       .     S
C8    C7     1.47657   1_455     S
C7    C8     1.47657   1_655     S
C13   C7     1.37903       .     S
C7    C13    1.37903       .     S
H9    C8     0.92998       .     S
C8    H9     0.92998       .     S
C10   C8     1.33097       .     S
C8    C10    1.33097       .     S
H12   C11    0.93070       .     S
C11   H12    0.93070       .     S
C13   C11    1.36355       .     S
C11   C13    1.36355       .     S
H14   C13    0.93061       .     S
C13   H14    0.93061       .     S
H16   N15    0.86843       .     S
N15   H16    0.86843       .     S
H17   N15    0.86812       .     S
N15   H17    0.86812       .     S
N18   N15    1.39198       .     S
N15   N18    1.39198       .     S
C22   N18    1.33542       .     S
N18   C22    1.33542       .     S
C24   N18    1.34857       .     S
N18   C24    1.34857       .     S
C20   C19    1.38986       .     S
C19   C20    1.38986       .     S
C26   C19    1.39134   1_556     S
C19   C26    1.39133   1_554     S
H21   C20    0.93028       .     S
C20   H21    0.93028       .     S
C22   C20    1.37259       .     S
C20   C22    1.37259       .     S
H23   C22    0.93054       .     S
C22   H23    0.93054       .     S
H25   C24    0.92979   1_556     S
C24   H25    0.92979   1_554     S
C26   C24    1.36176   1_556     S
C24   C26    1.36176   1_554     S
H27   C26    0.92997   1_655     S
C26   H27    0.92997   1_455     S
