data_I
_chemical_name_common  '/data/user2/wty/HOF/MOFDiff/mofdiff/data/test/182_ihof-1'
_cell_length_a  7.15250
_cell_length_b 19.66900
_cell_length_c 14.34430
_cell_angle_alpha 90.00000
_cell_angle_beta  90.57800
_cell_angle_gamma 90.00000
_space_group_name_H-M_alt      'P 1'


loop_
_space_group_symop_operation_xyz
  'x, y, z' 

loop_
_atom_site_label
_atom_site_fract_x
_atom_site_fract_y
_atom_site_fract_z
_atom_site_type_symbol
S0     0.72591  0.82118  0.54828     S
S1     0.61647   0.5017  0.31132     S
O2      0.7409  0.46022  0.36787     O
O3      0.5353  0.81159  0.57463     O
O4      0.6648  0.49891  0.21389     O
O5      0.4218  0.48826   0.3283     O
O6      0.8548  0.78097  0.60296     O
C7      0.7147  0.72219  0.40662     C
C8      0.7472  0.79181  0.43078     C
O9      0.7788  0.89194  0.54561     O
C10     0.6604  0.67076   0.4705     C
H11     0.6428   0.6819   0.5328     H
C12     0.8005  0.83776  0.36455     C
H13     0.8191   0.8829   0.3814     H
C14     0.7394  0.70343  0.31169     C
C15     0.7978  0.75218    0.246     C
H16     0.8162   0.7392   0.1844     H
C17     0.6335  0.60521  0.44188     C
H18     0.5996   0.5722    0.485     H
C19     0.7072  0.63504  0.28406     C
H20     0.7208   0.6228   0.2219     H
C21     0.6567  0.58719  0.34771     C
C22     0.8277  0.81799   0.2716     C
H23     0.8659   0.8497   0.2277     H
N24     0.8336  0.37986  0.57476     N
N25     0.6262  0.03919  0.65933     N
N26     0.5655  0.97239  0.67707     N
H27     0.4453   0.9716   0.6773     H
N28     0.8695   0.4489  0.55796     N
H29     0.8419   0.4586   0.5007     H
H30     0.8019   0.4737   0.5943     H
C31     0.7728  0.24423  0.61077     C
C32     0.7308  0.17182  0.62941     C
C33     0.5899  0.08586  0.72442     C
H34     0.5301   0.0734   0.7791     H
C35     0.6411  0.15217  0.71038     C
H36     0.6154   0.1845   0.7558     H
C37     0.8164  0.26697  0.52198     C
H38     0.8252   0.2359   0.4733     H
C39     0.8464  0.33465  0.50525     C
H40     0.8758   0.3492   0.4455     H
C41     0.7649  0.29298  0.68109     C
H42     0.7385   0.2798   0.7418     H
C43     0.7959  0.36009  0.66151     C
H44     0.7906   0.3922    0.709     H
C45     0.7222  0.05456  0.58261     C
H46     0.7527   0.0206   0.5403     H
C47     0.7754  0.12045  0.56653     C
H48     0.8419    0.131   0.5131     H
H49      0.603   0.9475    0.627     H
loop_
_geom_bond_atom_site_label_1
_geom_bond_atom_site_label_2
_geom_bond_distance
_geom_bond_site_symmetry_2
_ccdc_geom_bond_type
H29   O2     2.03113       .     S
O2    H29    2.03113       .     S
H49   O9     2.04155       .     S
O9    H49    2.04155       .     S
S0    O3     1.43092       .     S
O3    S0     1.43092       .     S
S0    O6     1.44083       .     S
O6    S0     1.44083       .     S
S0    C8     1.78965       .     S
C8    S0     1.78965       .     S
S0    O9     1.44288       .     S
O9    S0     1.44288       .     S
S1    O2     1.44953       .     S
O2    S1     1.44953       .     S
S1    O4     1.44411       .     S
O4    S1     1.44411       .     S
S1    O5     1.44040       .     S
O5    S1     1.44040       .     S
S1    C21    1.78317       .     S
C21   S1     1.78317       .     S
C7    C8     1.43096       .     S
C8    C7     1.43096       .     S
C7    C10    1.42160       .     S
C10   C7     1.42160       .     S
C7    C14    1.42354       .     S
C14   C7     1.42354       .     S
C8    C12    1.36822       .     S
C12   C8     1.36822       .     S
C10   H11    0.92991       .     S
H11   C10    0.92991       .     S
C10   C17    1.36611       .     S
C17   C10    1.36611       .     S
C12   H13    0.92939       .     S
H13   C12    0.92939       .     S
C12   C22    1.40427       .     S
C22   C12    1.40427       .     S
C14   C15    1.41058       .     S
C15   C14    1.41058       .     S
C14   C19    1.42047       .     S
C19   C14    1.42047       .     S
C15   H16    0.93038       .     S
H16   C15    0.93038       .     S
C15   C22    1.36181       .     S
C22   C15    1.36181       .     S
C17   H18    0.93056       .     S
H18   C17    0.93056       .     S
C17   C21    1.40796       .     S
C21   C17    1.40796       .     S
C19   H20    0.92962       .     S
H20   C19    0.92962       .     S
C19   C21    1.36253       .     S
C21   C19    1.36253       .     S
C22   H23    0.92934       .     S
H23   C22    0.92934       .     S
N24   N28    1.40331       .     S
N28   N24    1.40331       .     S
N24   C39    1.33982       .     S
C39   N24    1.33982       .     S
N24   C43    1.33384       .     S
C43   N24    1.33384       .     S
N25   N26    1.40776   1_545     S
N26   N25    1.40776   1_565     S
N25   C33    1.33667       .     S
C33   N25    1.33667       .     S
N25   C45    1.33761       .     S
C45   N25    1.33761       .     S
N26   H27    0.85991       .     S
H27   N26    0.85991       .     S
N26   H49    0.91178       .     S
H49   N26    0.91178       .     S
N28   H29    0.86413       .     S
H29   N28    0.86413       .     S
N28   H30    0.86518       .     S
H30   N28    0.86518       .     S
C31   C32    1.48047       .     S
C32   C31    1.48047       .     S
C31   C37    1.38833       .     S
C37   C31    1.38833       .     S
C31   C41    1.39328       .     S
C41   C31    1.39328       .     S
C32   C35    1.38745       .     S
C35   C32    1.38745       .     S
C32   C47    1.39356       .     S
C47   C32    1.39356       .     S
C33   H34    0.93004       .     S
H34   C33    0.93004       .     S
C33   C35    1.37012       .     S
C35   C33    1.37012       .     S
C35   H36    0.93008       .     S
H36   C35    0.93008       .     S
C37   H38    0.93054       .     S
H38   C37    0.93054       .     S
C37   C39    1.36995       .     S
C39   C37    1.36995       .     S
C39   H40    0.92969       .     S
H40   C39    0.92969       .     S
C41   H42    0.92981       .     S
H42   C41    0.92981       .     S
C41   C43    1.36809       .     S
C43   C41    1.36809       .     S
C43   H44    0.92999       .     S
H44   C43    0.92999       .     S
C45   H46    0.92993       .     S
H46   C45    0.92993       .     S
C45   C47    1.37090       .     S
C47   C45    1.37090       .     S
C47   H48    0.92954       .     S
H48   C47    0.92954       .     S
O2    H29    2.03113       .     S
H29   O2     2.03113       .     S
O9    H49    2.04155       .     S
H49   O9     2.04155       .     S
O3    S0     1.43092       .     S
S0    O3     1.43092       .     S
O6    S0     1.44083       .     S
S0    O6     1.44083       .     S
C8    S0     1.78965       .     S
S0    C8     1.78965       .     S
O9    S0     1.44288       .     S
S0    O9     1.44288       .     S
O2    S1     1.44953       .     S
S1    O2     1.44953       .     S
O4    S1     1.44411       .     S
S1    O4     1.44411       .     S
O5    S1     1.44040       .     S
S1    O5     1.44040       .     S
C21   S1     1.78317       .     S
S1    C21    1.78317       .     S
C8    C7     1.43096       .     S
C7    C8     1.43096       .     S
C10   C7     1.42160       .     S
C7    C10    1.42160       .     S
C14   C7     1.42354       .     S
C7    C14    1.42354       .     S
C12   C8     1.36822       .     S
C8    C12    1.36822       .     S
H11   C10    0.92991       .     S
C10   H11    0.92991       .     S
C17   C10    1.36611       .     S
C10   C17    1.36611       .     S
H13   C12    0.92939       .     S
C12   H13    0.92939       .     S
C22   C12    1.40427       .     S
C12   C22    1.40427       .     S
C15   C14    1.41058       .     S
C14   C15    1.41058       .     S
C19   C14    1.42047       .     S
C14   C19    1.42047       .     S
H16   C15    0.93038       .     S
C15   H16    0.93038       .     S
C22   C15    1.36181       .     S
C15   C22    1.36181       .     S
H18   C17    0.93056       .     S
C17   H18    0.93056       .     S
C21   C17    1.40796       .     S
C17   C21    1.40796       .     S
H20   C19    0.92962       .     S
C19   H20    0.92962       .     S
C21   C19    1.36253       .     S
C19   C21    1.36253       .     S
H23   C22    0.92934       .     S
C22   H23    0.92934       .     S
N28   N24    1.40331       .     S
N24   N28    1.40331       .     S
C39   N24    1.33982       .     S
N24   C39    1.33982       .     S
C43   N24    1.33384       .     S
N24   C43    1.33384       .     S
N26   N25    1.40776   1_565     S
N25   N26    1.40776   1_545     S
C33   N25    1.33667       .     S
N25   C33    1.33667       .     S
C45   N25    1.33761       .     S
N25   C45    1.33761       .     S
H27   N26    0.85991       .     S
N26   H27    0.85991       .     S
H49   N26    0.91178       .     S
N26   H49    0.91178       .     S
H29   N28    0.86413       .     S
N28   H29    0.86413       .     S
H30   N28    0.86518       .     S
N28   H30    0.86518       .     S
C32   C31    1.48047       .     S
C31   C32    1.48047       .     S
C37   C31    1.38833       .     S
C31   C37    1.38833       .     S
C41   C31    1.39328       .     S
C31   C41    1.39328       .     S
C35   C32    1.38745       .     S
C32   C35    1.38745       .     S
C47   C32    1.39356       .     S
C32   C47    1.39356       .     S
H34   C33    0.93004       .     S
C33   H34    0.93004       .     S
C35   C33    1.37012       .     S
C33   C35    1.37012       .     S
H36   C35    0.93008       .     S
C35   H36    0.93008       .     S
H38   C37    0.93054       .     S
C37   H38    0.93054       .     S
C39   C37    1.36995       .     S
C37   C39    1.36995       .     S
H40   C39    0.92969       .     S
C39   H40    0.92969       .     S
H42   C41    0.92981       .     S
C41   H42    0.92981       .     S
C43   C41    1.36809       .     S
C41   C43    1.36809       .     S
H44   C43    0.92999       .     S
C43   H44    0.92999       .     S
H46   C45    0.92993       .     S
C45   H46    0.92993       .     S
C47   C45    1.37090       .     S
C45   C47    1.37090       .     S
H48   C47    0.92954       .     S
C47   H48    0.92954       .     S
