data_I
_chemical_name_common  '/data/user2/wty/HOF/MOFDiff/mofdiff/data/test/182_ihof-2'
_cell_length_a 15.25130
_cell_length_b 13.80710
_cell_length_c 20.48030
_cell_angle_alpha 90.00000
_cell_angle_beta  90.00000
_cell_angle_gamma 90.00000
_space_group_name_H-M_alt      'P 1'


loop_
_space_group_symop_operation_xyz
  'x, y, z' 

loop_
_atom_site_label
_atom_site_fract_x
_atom_site_fract_y
_atom_site_fract_z
_atom_site_type_symbol
S0     0.49178  0.04202  0.35074     S
S1     0.13526  0.04943  0.63501     S
O2     0.10907  0.14561  0.65453     O
O3     0.51929  0.14042   0.3354     O
O4     0.21267  0.01522  0.67032     O
O5     0.48777  0.98052   0.2934     O
O6     0.06394  0.98041  0.63535     O
O7     0.54252    2e-05  0.40373     O
C8      0.3636   0.0473  0.44405     C
H9      0.4084   0.0379   0.4742     H
C10    0.27541   0.0564  0.46553     C
C11    0.20798   0.0706  0.41879     C
C12     0.1674   0.0578  0.55194     C
C13    0.25319   0.0511  0.53299     C
H14      0.297   0.0432   0.5641     H
C15    0.23091    0.076  0.35184     C
H16     0.1871   0.0858   0.3209     H
C17    0.10019   0.0715  0.50522     C
H18     0.0421   0.0763   0.5188     H
C19    0.38216   0.0526  0.37894     C
C20     0.1201   0.0777  0.44053     C
H21     0.0754   0.0867   0.4102     H
C22    0.31565   0.0671  0.33173     C
H23     0.3296   0.0705   0.2876     H
N24    0.33686  0.34587  0.27569     N
N25    0.23607  0.31027  0.60722     N
N26    0.21815  0.32107  0.67436     N
H27     0.1621   0.3192   0.6804     H
H28     0.2423   0.2744   0.6959     H
N29    0.35654   0.3631   0.2102     N
H30     0.3591   0.3086   0.1899     H
H31     0.3161   0.3984   0.1933     H
C32    0.19019   0.3068  0.49748     C
H33     0.1449   0.3055   0.4671     H
C34    0.34236   0.2995  0.52435     C
H35      0.401   0.2946   0.5123     H
C36    0.27748  0.30503  0.47608     C
C37    0.38477   0.3219  0.38347     C
H38     0.4308   0.3166    0.413     H
C39    0.29867  0.31313  0.40565     C
C40    0.17114   0.3104  0.56266     C
H41      0.113   0.3129   0.5763     H
C42    0.32022   0.3013  0.58904     C
H43     0.3638   0.2962   0.6207     H
C44    0.40251   0.3382  0.31883     C
H45     0.4603    0.344   0.3049     H
C46    0.25236   0.3348  0.29426     C
H47     0.2077    0.338   0.2634     H
C48    0.23272    0.319  0.35886     C
H49     0.1745    0.312   0.3715     H
O50    0.48381   0.7973  0.40983     O
H51     0.4885   0.7712   0.3724     H
H52     0.5044   0.8541   0.4048     H
O53     0.9909  0.82309  0.69959     O
H54     0.9872   0.8246    0.741     H
H55     0.0161   0.8743   0.6861     H
loop_
_geom_bond_atom_site_label_1
_geom_bond_atom_site_label_2
_geom_bond_distance
_geom_bond_site_symmetry_2
_ccdc_geom_bond_type
H27   O2     2.58445       .     S
O2    H27    2.58445       .     S
H52   O7     2.09705   1_565     S
O7    H52    2.09705   1_545     S
H55   O6     1.93884       .     S
O6    H55    1.93884       .     S
S0    O3     1.45622       .     S
O3    S0     1.45622       .     S
S0    O5     1.45046   1_545     S
O5    S0     1.45046   1_565     S
S0    O7     1.45358       .     S
O7    S0     1.45358       .     S
S0    C19    1.77482       .     S
C19   S0     1.77482       .     S
S1    O2     1.44321       .     S
O2    S1     1.44321       .     S
S1    O4     1.46284       .     S
O4    S1     1.46284       .     S
S1    O6     1.44614   1_545     S
O6    S1     1.44614   1_565     S
S1    C12    1.77427       .     S
C12   S1     1.77427       .     S
C8    H9     0.93004       .     S
H9    C8     0.93004       .     S
C8    C10    1.42069       .     S
C10   C8     1.42069       .     S
C8    C19    1.36515       .     S
C19   C8     1.36515       .     S
C10   C11    1.41858       .     S
C11   C10    1.41858       .     S
C10   C13    1.42444       .     S
C13   C10    1.42444       .     S
C11   C15    1.41701       .     S
C15   C11    1.41701       .     S
C11   C20    1.41570       .     S
C20   C11    1.41570       .     S
C12   C13    1.36789       .     S
C13   C12    1.36789       .     S
C12   C17    1.41493       .     S
C17   C12    1.41493       .     S
C13   H14    0.92967       .     S
H14   C13    0.92967       .     S
C15   H16    0.93074       .     S
H16   C15    0.93074       .     S
C15   C22    1.36199       .     S
C22   C15    1.36199       .     S
C17   H18    0.93094       .     S
H18   C17    0.93094       .     S
C17   C20    1.36192       .     S
C20   C17    1.36192       .     S
C19   C22    1.41558       .     S
C22   C19    1.41558       .     S
C20   H21    0.93062       .     S
H21   C20    0.93062       .     S
C22   H23    0.92969       .     S
H23   C22    0.92969       .     S
N24   N29    1.39486       .     S
N29   N24    1.39486       .     S
N24   C44    1.33952       .     S
C44   N24    1.33952       .     S
N24   C46    1.35235       .     S
C46   N24    1.35235       .     S
N25   N26    1.40985       .     S
N26   N25    1.40985       .     S
N25   C40    1.34665       .     S
C40   N25    1.34665       .     S
N25   C42    1.34204       .     S
C42   N25    1.34204       .     S
N26   H27    0.86413       .     S
H27   N26    0.86413       .     S
N26   H28    0.86342       .     S
H28   N26    0.86342       .     S
N29   H30    0.86059       .     S
H30   N29    0.86059       .     S
N29   H31    0.85892       .     S
H31   N29    0.85892       .     S
C32   H33    0.92981       .     S
H33   C32    0.92981       .     S
C32   C36    1.40179       .     S
C36   C32    1.40179       .     S
C32   C40    1.36706       .     S
C40   C32    1.36706       .     S
C34   H35    0.93022       .     S
H35   C34    0.93022       .     S
C34   C36    1.40080       .     S
C36   C34    1.40080       .     S
C34   C42    1.36745       .     S
C42   C34    1.36745       .     S
C36   C39    1.48241       .     S
C39   C36    1.48241       .     S
C37   H38    0.92949       .     S
H38   C37    0.92949       .     S
C37   C39    1.39475       .     S
C39   C37    1.39475       .     S
C37   C44    1.36983       .     S
C44   C37    1.36983       .     S
C39   C48    1.39159       .     S
C48   C39    1.39159       .     S
C40   H41    0.93031       .     S
H41   C40    0.93031       .     S
C42   H43    0.93121       .     S
H43   C42    0.93121       .     S
C44   H45    0.92985       .     S
H45   C44    0.92985       .     S
C46   H47    0.93023       .     S
H47   C46    0.93023       .     S
C46   C48    1.37394       .     S
C48   C46    1.37394       .     S
C48   H49    0.92993       .     S
H49   C48    0.92993       .     S
O50   H51    0.85007       .     S
H51   O50    0.85007       .     S
O50   H52    0.85104       .     S
H52   O50    0.85104       .     S
O53   H54    0.85022       .     S
H54   O53    0.85022       .     S
O53   H55    0.85087   1_655     S
H55   O53    0.85087   1_455     S
O2    H27    2.58445       .     S
H27   O2     2.58445       .     S
O7    H52    2.09705   1_545     S
H52   O7     2.09705   1_565     S
O6    H55    1.93884       .     S
H55   O6     1.93884       .     S
O3    S0     1.45622       .     S
S0    O3     1.45622       .     S
O5    S0     1.45046   1_565     S
S0    O5     1.45046   1_545     S
O7    S0     1.45358       .     S
S0    O7     1.45358       .     S
C19   S0     1.77482       .     S
S0    C19    1.77482       .     S
O2    S1     1.44321       .     S
S1    O2     1.44321       .     S
O4    S1     1.46284       .     S
S1    O4     1.46284       .     S
O6    S1     1.44614   1_565     S
S1    O6     1.44614   1_545     S
C12   S1     1.77427       .     S
S1    C12    1.77427       .     S
H9    C8     0.93004       .     S
C8    H9     0.93004       .     S
C10   C8     1.42069       .     S
C8    C10    1.42069       .     S
C19   C8     1.36515       .     S
C8    C19    1.36515       .     S
C11   C10    1.41858       .     S
C10   C11    1.41858       .     S
C13   C10    1.42444       .     S
C10   C13    1.42444       .     S
C15   C11    1.41701       .     S
C11   C15    1.41701       .     S
C20   C11    1.41570       .     S
C11   C20    1.41570       .     S
C13   C12    1.36789       .     S
C12   C13    1.36789       .     S
C17   C12    1.41493       .     S
C12   C17    1.41493       .     S
H14   C13    0.92967       .     S
C13   H14    0.92967       .     S
H16   C15    0.93074       .     S
C15   H16    0.93074       .     S
C22   C15    1.36199       .     S
C15   C22    1.36199       .     S
H18   C17    0.93094       .     S
C17   H18    0.93094       .     S
C20   C17    1.36192       .     S
C17   C20    1.36192       .     S
C22   C19    1.41558       .     S
C19   C22    1.41558       .     S
H21   C20    0.93062       .     S
C20   H21    0.93062       .     S
H23   C22    0.92969       .     S
C22   H23    0.92969       .     S
N29   N24    1.39486       .     S
N24   N29    1.39486       .     S
C44   N24    1.33952       .     S
N24   C44    1.33952       .     S
C46   N24    1.35235       .     S
N24   C46    1.35235       .     S
N26   N25    1.40985       .     S
N25   N26    1.40985       .     S
C40   N25    1.34665       .     S
N25   C40    1.34665       .     S
C42   N25    1.34204       .     S
N25   C42    1.34204       .     S
H27   N26    0.86413       .     S
N26   H27    0.86413       .     S
H28   N26    0.86342       .     S
N26   H28    0.86342       .     S
H30   N29    0.86059       .     S
N29   H30    0.86059       .     S
H31   N29    0.85892       .     S
N29   H31    0.85892       .     S
H33   C32    0.92981       .     S
C32   H33    0.92981       .     S
C36   C32    1.40179       .     S
C32   C36    1.40179       .     S
C40   C32    1.36706       .     S
C32   C40    1.36706       .     S
H35   C34    0.93022       .     S
C34   H35    0.93022       .     S
C36   C34    1.40080       .     S
C34   C36    1.40080       .     S
C42   C34    1.36745       .     S
C34   C42    1.36745       .     S
C39   C36    1.48241       .     S
C36   C39    1.48241       .     S
H38   C37    0.92949       .     S
C37   H38    0.92949       .     S
C39   C37    1.39475       .     S
C37   C39    1.39475       .     S
C44   C37    1.36983       .     S
C37   C44    1.36983       .     S
C48   C39    1.39159       .     S
C39   C48    1.39159       .     S
H41   C40    0.93031       .     S
C40   H41    0.93031       .     S
H43   C42    0.93121       .     S
C42   H43    0.93121       .     S
H45   C44    0.92985       .     S
C44   H45    0.92985       .     S
H47   C46    0.93023       .     S
C46   H47    0.93023       .     S
C48   C46    1.37394       .     S
C46   C48    1.37394       .     S
H49   C48    0.92993       .     S
C48   H49    0.92993       .     S
H51   O50    0.85007       .     S
O50   H51    0.85007       .     S
H52   O50    0.85104       .     S
O50   H52    0.85104       .     S
H54   O53    0.85022       .     S
O53   H54    0.85022       .     S
H55   O53    0.85087   1_455     S
O53   H55    0.85087   1_655     S
