data_I
_chemical_name_common  '/data/user2/wty/HOF/MOFDiff/mofdiff/data/test/184_cfa-20-br'
_cell_length_a 22.35800
_cell_length_b 22.35800
_cell_length_c 22.35800
_cell_angle_alpha 90.00000
_cell_angle_beta  90.00000
_cell_angle_gamma 90.00000
_space_group_name_H-M_alt      'P 1'


loop_
_space_group_symop_operation_xyz
  'x, y, z' 

loop_
_atom_site_label
_atom_site_fract_x
_atom_site_fract_y
_atom_site_fract_z
_atom_site_type_symbol
Zn0        0.5      0.5      0.5    Zn
Zn1    0.59155  0.59155  0.59155    Zn
Br2     0.6512   0.6512   0.6512    Br
N3         0.5      0.5   0.5983     N
N4       0.535    0.535   0.6335     N
N5      0.5433   0.5433    0.852     N
H6     0.55703  0.58742   0.8504     H
H7     0.51084  0.54104  0.88443     H
C8      0.5211   0.5211   0.6897     C
C9      0.5465   0.5465   0.7438     C
H10     0.5765   0.5765  0.74346     H
C11      0.523    0.523   0.7955     C
loop_
_geom_bond_atom_site_label_1
_geom_bond_atom_site_label_2
_geom_bond_distance
_geom_bond_site_symmetry_2
_ccdc_geom_bond_type
Zn0   N3     2.19779       .     S
N3    Zn0    2.19779       .     S
Zn1   Br2    2.30996       .     S
Br2   Zn1    2.30996       .     S
Zn1   N4     2.01911       .     S
N4    Zn1    2.01911       .     S
N3    N4     1.35797       .     S
N4    N3     1.35797       .     S
N4    C8     1.33117       .     S
C8    N4     1.33117       .     S
N5    H6     1.03372       .     S
H6    N5     1.03372       .     S
N5    H7     1.02712       .     S
H7    N5     1.02712       .     S
N5    C11    1.41695       .     S
C11   N5     1.41695       .     S
C8    C9     1.45192       .     S
C9    C8     1.45192       .     S
C9    H10    0.94860       .     S
H10   C9     0.94860       .     S
C9    C11    1.37413       .     S
C11   C9     1.37413       .     S
N3    Zn0    2.19779       .     S
Zn0   N3     2.19779       .     S
Br2   Zn1    2.30996       .     S
Zn1   Br2    2.30996       .     S
N4    Zn1    2.01911       .     S
Zn1   N4     2.01911       .     S
N4    N3     1.35797       .     S
N3    N4     1.35797       .     S
C8    N4     1.33117       .     S
N4    C8     1.33117       .     S
H6    N5     1.03372       .     S
N5    H6     1.03372       .     S
H7    N5     1.02712       .     S
N5    H7     1.02712       .     S
C11   N5     1.41695       .     S
N5    C11    1.41695       .     S
C9    C8     1.45192       .     S
C8    C9     1.45192       .     S
H10   C9     0.94860       .     S
C9    H10    0.94860       .     S
C11   C9     1.37413       .     S
C9    C11    1.37413       .     S
