data_I
_chemical_name_common  '/data/user2/wty/HOF/MOFDiff/mofdiff/data/test/184_cfa-20-tp'
_cell_length_a 41.75910
_cell_length_b 41.75910
_cell_length_c 16.71080
_cell_angle_alpha 90.00000
_cell_angle_beta  90.00000
_cell_angle_gamma 120.00000
_space_group_name_H-M_alt      'P 1'


loop_
_space_group_symop_operation_xyz
  'x, y, z' 

loop_
_atom_site_label
_atom_site_fract_x
_atom_site_fract_y
_atom_site_fract_z
_atom_site_type_symbol
Zn0    0.50024  0.49976  0.52472    Zn
Zn1    0.48972  0.51028  0.30632    Zn
Zn2    0.55165  0.44835  0.55944    Zn
Zn3    0.55298  0.59392  0.62001    Zn
N4      0.4144     0.46   0.4966     N
N5      0.4472   0.4779   0.4602     N
N6      0.4438   0.4826   0.3836     N
N7      0.3299   0.4549   0.2396     N
H8     0.34295  0.47666  0.21412     H
H9     0.30863  0.45266  0.25803     H
H10    0.32478  0.43629  0.20528     H
N11     0.2942   0.4288   0.3803     N
H12    0.28139  0.40502  0.39569     H
H13    0.28637  0.43123  0.33162     H
H14     0.2905  0.44292  0.41575     H
N15      0.517    0.483   0.3541     N
N16     0.5211   0.4789   0.4317     N
N17     0.5392   0.4608   0.4435     N
N18     0.5886   0.4114   0.2379     N
H19    0.61318  0.42651  0.24273     H
H20    0.58296   0.4048  0.18627     H
H21    0.58151  0.39105  0.26792     H
N22     0.5605   0.4395   0.1271     N
H23    0.54176  0.43848  0.09859     H
H24    0.56087  0.41826  0.12067     H
H25    0.58206  0.45857  0.10994     H
N26     0.5712   0.5033   0.6012     N
N27     0.5532   0.5214    0.591     N
N28     0.5719   0.5552   0.6216     N
N29      0.693   0.5484   0.7305     N
H30    0.69211  0.52775  0.71166     H
H31    0.69334  0.54815  0.78433     H
H32    0.71358  0.56836  0.71235     H
N33     0.6935   0.6129    0.755     N
H34    0.69949  0.63452   0.7312     H
H35    0.71213  0.60817  0.74924     H
H36    0.68933  0.61427  0.80745     H
N37     0.4992    0.554   0.6558     N
N38     0.4794   0.5206   0.6203     N
N39      0.469    0.597   0.9037     N
H40    0.48965  0.61878  0.89468     H
H41    0.47219  0.58624  0.94728     H
H42    0.44983  0.60076  0.91166     H
N43     0.4633   0.5367   0.2284     N
N44     0.4655   0.5345   0.1494     N
N45      0.462   0.4669   0.2193     N
N46     0.4649   0.4745    0.139     N
N47     0.5377   0.3934   0.5226     N
N48     0.5609   0.3801   0.5361     N
N49     0.5686   0.4314   0.6721     N
N50     0.5871   0.4129   0.6647     N
N51     0.5726   0.6111   0.7452     N
N52     0.5836   0.6464   0.7657     N
N53     0.5365   0.6361   0.6303     N
N54      0.563   0.6708   0.6519     N
N55     0.6085   0.6417   0.5911     N
N56     0.6224   0.6705   0.6432     N
C57      0.389   0.4539   0.4392     C
C58     0.4075   0.4683    0.368     C
C59      0.388   0.4672   0.2983     C
H60    0.40035  0.47579  0.24913     H
C61     0.3506   0.4533   0.3039     C
C62     0.3323   0.4404   0.3769     C
C63     0.3501   0.4384   0.4426     C
H64    0.33693  0.42694  0.48961     H
C65     0.5332   0.4668   0.3122     C
C66     0.5473   0.4527   0.3698     C
C67     0.5663   0.4337   0.3467     C
H68    0.57581  0.42419  0.38496     H
C69     0.5701   0.4299    0.264     C
C70     0.5557   0.4443   0.2075     C
C71     0.5378   0.4622   0.2318     C
H72    0.52831  0.47169  0.19327     H
C73     0.6032   0.5256   0.6409     C
C74     0.6036   0.5591   0.6556     C
C75     0.6332   0.5886   0.6965     C
H76    0.63314  0.61068  0.70711     H
C77     0.6612   0.5843   0.7194     C
C78     0.6618   0.5497   0.7042     C
C79     0.6322   0.5212    0.667     C
H80    0.63145  0.49852  0.65906     H
C81     0.4457   0.5543    0.246     C
H82    0.44066  0.55934  0.29794     H
C83     0.4355   0.5645    0.174     C
H84    0.42263  0.57737  0.16653     H
C85      0.449    0.551    0.117     C
H86    0.44681  0.55319  0.06112     H
C87      0.444   0.4314   0.2269     C
H88    0.43866   0.4189  0.27611     H
C89     0.4338   0.4146   0.1543     C
H90     0.4204   0.3891  0.14365     H
C91     0.4473   0.4431   0.0998     C
H92    0.44443  0.44049  0.04392     H
C93     0.5097    0.368    0.479     C
H94    0.48907  0.36945  0.46191     H
C95     0.5161   0.3389   0.4629     C
H96    0.50112  0.31748  0.43272     H
C97     0.5481   0.3478   0.4994     C
H98    0.55966  0.33342   0.4991     H
C99     0.5653   0.4347   0.7499     C
H100   0.55331  0.44669  0.77192     H
C101    0.5813   0.4187    0.795     C
H102   0.58248  0.41752  0.85125     H
C103    0.5952   0.4048    0.737     C
H104   0.60799  0.39201  0.74675     H
C105    0.5655   0.5931    0.814     C
H106   0.55768  0.56776  0.81841     H
C107     0.571   0.6156   0.8775     C
H108   0.56752  0.60907  0.93192     H
C109    0.5828   0.6499   0.8451     C
H110    0.5892  0.67179  0.87335     H
C111    0.5108   0.6398   0.5922     C
H112   0.48954  0.62006  0.56912     H
C113    0.5186   0.6753   0.5905     C
H114   0.50456  0.68503   0.5682     H
C115     0.553   0.6944   0.6301     C
H116    0.5665  0.72007  0.63934     H
C117    0.6369   0.6446   0.5508     C
H118   0.63504  0.62816  0.51026     H
C119    0.6698   0.6748   0.5755     C
H120   0.69374   0.6827  0.55592     H
C121    0.6596   0.6906    0.635     C
H122   0.67569  0.71161  0.66496     H
C123    0.4787   0.5546   0.7172     C
C124     0.486   0.5812   0.7768     C
H125   0.50794  0.60428  0.77498     H
C126    0.4616   0.5735   0.8363     C
B127    0.4848   0.5152   0.1101     B
H128   0.48362  0.51638  0.04445     H
B129    0.5965   0.4035   0.5844     B
H130   0.61156  0.38844  0.59182     H
B131    0.5967   0.6763   0.7001     B
H132   0.61126  0.70416  0.72669     H
C133    0.4998    0.438    0.866     C
H134   0.48504    0.422   0.8251     H
O135    0.5022   0.4242    0.924     O
C136    0.5377   0.4946    0.913     C
H137    0.5613  0.51277  0.89026     H
H138   0.54161  0.47966  0.95182     H
H139   0.52628  0.50715  0.93885     H
N140    0.5146   0.4719   0.8519     N
C141    0.5126   0.4874   0.7786     C
H142   0.50438  0.46882  0.73696     H
H143   0.53677  0.50793  0.76505     H
H144   0.49512  0.49626  0.78344     H
loop_
_geom_bond_atom_site_label_1
_geom_bond_atom_site_label_2
_geom_bond_distance
_geom_bond_site_symmetry_2
_ccdc_geom_bond_type
H9    N11    2.22042       .     S
N11   H9     2.22042       .     S
H13   N7     2.20208       .     S
N7    H13    2.20208       .     S
H35   N29    2.22981       .     S
N29   H35    2.22981       .     S
Zn0   N5     2.20900       .     S
N5    Zn0    2.20900       .     S
Zn0   N16    2.16626       .     S
N16   Zn0    2.16626       .     S
Zn0   N27    2.22168       .     S
N27   Zn0    2.22168       .     S
Zn0   N38    2.19617       .     S
N38   Zn0    2.19617       .     S
Zn1   N6     2.11292       .     S
N6    Zn1    2.11292       .     S
Zn1   N15    2.12856       .     S
N15   Zn1    2.12856       .     S
Zn1   N43    2.31239       .     S
N43   Zn1    2.31239       .     S
Zn1   N45    2.15388       .     S
N45   Zn1    2.15388       .     S
Zn2   N17    2.13649       .     S
N17   Zn2    2.13649       .     S
Zn2   N26    2.13204       .     S
N26   Zn2    2.13204       .     S
Zn2   N47    2.15571       .     S
N47   Zn2    2.15571       .     S
Zn2   N49    2.24663       .     S
N49   Zn2    2.24663       .     S
Zn3   N28    2.12529       .     S
N28   Zn3    2.12529       .     S
Zn3   N37    2.10630       .     S
N37   Zn3    2.10630       .     S
Zn3   N51    2.23041       .     S
N51   Zn3    2.23041       .     S
Zn3   N53    2.19497       .     S
N53   Zn3    2.19497       .     S
Zn3   N55    2.22795       .     S
N55   Zn3    2.22795       .     S
N4    N5     1.33453       .     S
N5    N4     1.33453       .     S
N4    C57    1.35639       .     S
C57   N4     1.35639       .     S
N5    N6     1.31342       .     S
N6    N5     1.31342       .     S
N6    C58    1.34802       .     S
C58   N6     1.34802       .     S
N7    H8     0.89932       .     S
H8    N7     0.89932       .     S
N7    H9     0.89969       .     S
H9    N7     0.89969       .     S
N7    H10    0.90134       .     S
H10   N7     0.90134       .     S
N7    C61    1.40142       .     S
C61   N7     1.40142       .     S
N11   H12    0.89844       .     S
H12   N11    0.89844       .     S
N11   H13    0.90119       .     S
H13   N11    0.90119       .     S
N11   H14    0.90199       .     S
H14   N11    0.90199       .     S
N11   C62    1.41369       .     S
C62   N11    1.41369       .     S
N15   N16    1.33023       .     S
N16   N15    1.33023       .     S
N15   C65    1.36499       .     S
C65   N15    1.36499       .     S
N16   N17    1.32392       .     S
N17   N16    1.32392       .     S
N17   C66    1.36383       .     S
C66   N17    1.36383       .     S
N18   H19    0.90031       .     S
H19   N18    0.90031       .     S
N18   H20    0.90050       .     S
H20   N18    0.90050       .     S
N18   H21    0.89993       .     S
H21   N18    0.89993       .     S
N18   C69    1.40737       .     S
C69   N18    1.40737       .     S
N22   H23    0.89882       .     S
H23   N22    0.89882       .     S
N22   H24    0.90122       .     S
H24   N22    0.90122       .     S
N22   H25    0.90001       .     S
H25   N22    0.90001       .     S
N22   C70    1.38768       .     S
C70   N22    1.38768       .     S
N26   N27    1.31662       .     S
N27   N26    1.31662       .     S
N26   C73    1.35963       .     S
C73   N26    1.35963       .     S
N27   N28    1.32714       .     S
N28   N27    1.32714       .     S
N28   C74    1.37335       .     S
C74   N28    1.37335       .     S
N29   H30    0.90114       .     S
H30   N29    0.90114       .     S
N29   H31    0.89980       .     S
H31   N29    0.89980       .     S
N29   H32    0.89943       .     S
H32   N29    0.89943       .     S
N29   C78    1.40155       .     S
C78   N29    1.40155       .     S
N33   H34    0.90001       .     S
H34   N33    0.90001       .     S
N33   H35    0.89844       .     S
H35   N33    0.89844       .     S
N33   H36    0.90099       .     S
H36   N33    0.90099       .     S
N33   C77    1.41021       .     S
C77   N33    1.41021       .     S
N37   N38    1.35192       .     S
N38   N37    1.35192       .     S
N37   C123   1.34450       .     S
C123  N37    1.34450       .     S
N39   H40    0.89958       .     S
H40   N39    0.89958       .     S
N39   H41    0.89992       .     S
H41   N39    0.89992       .     S
N39   H42    0.89938       .     S
H42   N39    0.89938       .     S
N39   C126   1.42262       .     S
C126  N39    1.42262       .     S
N43   N44    1.32971       .     S
N44   N43    1.32971       .     S
N43   C81    1.30652       .     S
C81   N43    1.30652       .     S
N44   C85    1.31050       .     S
C85   N44    1.31050       .     S
N44   B127   1.54272       .     S
B127  N44    1.54272       .     S
N45   N46    1.37025       .     S
N46   N45    1.37025       .     S
N45   C87    1.29015       .     S
C87   N45    1.29015       .     S
N46   C91    1.31336       .     S
C91   N46    1.31336       .     S
N46   B127   1.54921       .     S
B127  N46    1.54921       .     S
N47   N48    1.35500       .     S
N48   N47    1.35500       .     S
N47   C93    1.33523       .     S
C93   N47    1.33523       .     S
N48   C97    1.32672       .     S
C97   N48    1.32672       .     S
N48   B129   1.53743       .     S
B129  N48    1.53743       .     S
N49   N50    1.34379       .     S
N50   N49    1.34379       .     S
N49   C99    1.32183       .     S
C99   N49    1.32183       .     S
N50   C103   1.34274       .     S
C103  N50    1.34274       .     S
N50   B129   1.50429       .     S
B129  N50    1.50429       .     S
N51   N52    1.35063       .     S
N52   N51    1.35063       .     S
N51   C105   1.32358       .     S
C105  N51    1.32358       .     S
N52   C109   1.33711       .     S
C109  N52    1.33711       .     S
N52   B131   1.54173       .     S
B131  N52    1.54173       .     S
N53   N54    1.36054       .     S
N54   N53    1.36054       .     S
N53   C111   1.32168       .     S
C111  N53    1.32168       .     S
N54   C115   1.29995       .     S
C115  N54    1.29995       .     S
N54   B131   1.53582       .     S
B131  N54    1.53582       .     S
N55   N56    1.35766       .     S
N56   N55    1.35766       .     S
N55   C117   1.31570       .     S
C117  N55    1.31570       .     S
N56   C121   1.35373       .     S
C121  N56    1.35373       .     S
N56   B131   1.54093       .     S
B131  N56    1.54093       .     S
C57   C58    1.38185       .     S
C58   C57    1.38185       .     S
C57   C63    1.41757       .     S
C63   C57    1.41757       .     S
C58   C59    1.40869       .     S
C59   C58    1.40869       .     S
C59   H60    0.94063       .     S
H60   C59    0.94063       .     S
C59   C61    1.37052       .     S
C61   C59    1.37052       .     S
C61   C62    1.39665       .     S
C62   C61    1.39665       .     S
C62   C63    1.35165       .     S
C63   C62    1.35165       .     S
C63   H64    0.94097       .     S
H64   C63    0.94097       .     S
C65   C66    1.40234       .     S
C66   C65    1.40234       .     S
C65   C71    1.38413       .     S
C71   C65    1.38413       .     S
C66   C67    1.42743       .     S
C67   C66    1.42743       .     S
C67   H68    0.93910       .     S
H68   C67    0.93910       .     S
C67   C69    1.40905       .     S
C69   C67    1.40905       .     S
C69   C70    1.40579       .     S
C70   C69    1.40579       .     S
C70   C71    1.35687       .     S
C71   C70    1.35687       .     S
C71   H72    0.94112       .     S
H72   C71    0.94112       .     S
C73   C74    1.41218       .     S
C74   C73    1.41218       .     S
C73   C79    1.38313       .     S
C79   C73    1.38313       .     S
C74   C75    1.41062       .     S
C75   C74    1.41062       .     S
C75   H76    0.94016       .     S
H76   C75    0.94016       .     S
C75   C77    1.32507       .     S
C77   C75    1.32507       .     S
C77   C78    1.47952       .     S
C78   C77    1.47952       .     S
C78   C79    1.36369       .     S
C79   C78    1.36369       .     S
C79   H80    0.94123       .     S
H80   C79    0.94123       .     S
C81   H82    0.94140       .     S
H82   C81    0.94140       .     S
C81   C83    1.41135       .     S
C83   C81    1.41135       .     S
C83   H84    0.93921       .     S
H84   C83    0.93921       .     S
C83   C85    1.36408       .     S
C85   C83    1.36408       .     S
C85   H86    0.94714       .     S
H86   C85    0.94714       .     S
C87   H88    0.93917       .     S
H88   C87    0.93917       .     S
C87   C89    1.35891       .     S
C89   C87    1.35891       .     S
C89   H90    0.93960       .     S
H90   C89    0.93960       .     S
C89   C91    1.37577       .     S
C91   C89    1.37577       .     S
C91   H92    0.94083       .     S
H92   C91    0.94083       .     S
C93   H94    0.93785       .     S
H94   C93    0.93785       .     S
C93   C95    1.39473       .     S
C95   C93    1.39473       .     S
C95   H96    0.94139       .     S
H96   C95    0.94139       .     S
C95   C97    1.34134       .     S
C97   C95    1.34134       .     S
C97   H98    0.93997       .     S
H98   C97    0.93997       .     S
C99   H100   0.94206       .     S
H100  C99    0.94206       .     S
C99   C101   1.38103       .     S
C101  C99    1.38103       .     S
C101  H102   0.94385       .     S
H102  C101   0.94385       .     S
C101  C103   1.39648       .     S
C103  C101   1.39648       .     S
C103  H104   0.93933       .     S
H104  C103   0.93933       .     S
C105  H106   0.94141       .     S
H106  C105   0.94141       .     S
C105  C107   1.35859       .     S
C107  C105   1.35859       .     S
C107  H108   0.93961       .     S
H108  C107   0.93961       .     S
C107  C109   1.37177       .     S
C109  C107   1.37177       .     S
C109  H110   0.94105       .     S
H110  C109   0.94105       .     S
C111  H112   0.94054       .     S
H112  C111   0.94054       .     S
C111  C113   1.34970       .     S
C113  C111   1.34970       .     S
C113  H114   0.94124       .     S
H114  C113   0.94124       .     S
C113  C115   1.41134       .     S
C115  C113   1.41134       .     S
C115  H116   0.94150       .     S
H116  C115   0.94150       .     S
C117  H118   0.93966       .     S
H118  C117   0.93966       .     S
C117  C119   1.38409       .     S
C119  C117   1.38409       .     S
C119  H120   0.94102       .     S
H120  C119   0.94102       .     S
C119  C121   1.37347       .     S
C121  C119   1.37347       .     S
C121  H122   0.93934       .     S
H122  C121   0.93934       .     S
C123  C124   1.40717       .     S
C124  C123   1.40717       .     S
C124  H125   0.94139       .     S
H125  C124   0.94139       .     S
C124  C126   1.34260       .     S
C126  C124   1.34260       .     S
B127  H128   1.10038       .     S
H128  B127   1.10038       .     S
B129  H130   1.09631       .     S
H130  B129   1.09631       .     S
B131  H132   1.10149       .     S
H132  B131   1.10149       .     S
C133  H134   0.93895       .     S
H134  C133   0.93895       .     S
C133  O135   1.15728       .     S
O135  C133   1.15728       .     S
C133  N140   1.25163       .     S
N140  C133   1.25163       .     S
C136  H137   0.97139       .     S
H137  C136   0.97139       .     S
C136  H138   0.96881       .     S
H138  C136   0.96881       .     S
C136  H139   0.96882       .     S
H139  C136   0.96882       .     S
C136  N140   1.39900       .     S
N140  C136   1.39900       .     S
N140  C141   1.40726       .     S
C141  N140   1.40726       .     S
C141  H142   0.96834       .     S
H142  C141   0.96834       .     S
C141  H143   0.96937       .     S
H143  C141   0.96937       .     S
C141  H144   0.97279       .     S
H144  C141   0.97279       .     S
N11   H9     2.22042       .     S
H9    N11    2.22042       .     S
N7    H13    2.20208       .     S
H13   N7     2.20208       .     S
N29   H35    2.22981       .     S
H35   N29    2.22981       .     S
N5    Zn0    2.20900       .     S
Zn0   N5     2.20900       .     S
N16   Zn0    2.16626       .     S
Zn0   N16    2.16626       .     S
N27   Zn0    2.22168       .     S
Zn0   N27    2.22168       .     S
N38   Zn0    2.19617       .     S
Zn0   N38    2.19617       .     S
N6    Zn1    2.11292       .     S
Zn1   N6     2.11292       .     S
N15   Zn1    2.12856       .     S
Zn1   N15    2.12856       .     S
N43   Zn1    2.31239       .     S
Zn1   N43    2.31239       .     S
N45   Zn1    2.15388       .     S
Zn1   N45    2.15388       .     S
N17   Zn2    2.13649       .     S
Zn2   N17    2.13649       .     S
N26   Zn2    2.13204       .     S
Zn2   N26    2.13204       .     S
N47   Zn2    2.15571       .     S
Zn2   N47    2.15571       .     S
N49   Zn2    2.24663       .     S
Zn2   N49    2.24663       .     S
N28   Zn3    2.12529       .     S
Zn3   N28    2.12529       .     S
N37   Zn3    2.10630       .     S
Zn3   N37    2.10630       .     S
N51   Zn3    2.23041       .     S
Zn3   N51    2.23041       .     S
N53   Zn3    2.19497       .     S
Zn3   N53    2.19497       .     S
N55   Zn3    2.22795       .     S
Zn3   N55    2.22795       .     S
N5    N4     1.33453       .     S
N4    N5     1.33453       .     S
C57   N4     1.35639       .     S
N4    C57    1.35639       .     S
N6    N5     1.31342       .     S
N5    N6     1.31342       .     S
C58   N6     1.34802       .     S
N6    C58    1.34802       .     S
H8    N7     0.89932       .     S
N7    H8     0.89932       .     S
H9    N7     0.89969       .     S
N7    H9     0.89969       .     S
H10   N7     0.90134       .     S
N7    H10    0.90134       .     S
C61   N7     1.40142       .     S
N7    C61    1.40142       .     S
H12   N11    0.89844       .     S
N11   H12    0.89844       .     S
H13   N11    0.90119       .     S
N11   H13    0.90119       .     S
H14   N11    0.90199       .     S
N11   H14    0.90199       .     S
C62   N11    1.41369       .     S
N11   C62    1.41369       .     S
N16   N15    1.33023       .     S
N15   N16    1.33023       .     S
C65   N15    1.36499       .     S
N15   C65    1.36499       .     S
N17   N16    1.32392       .     S
N16   N17    1.32392       .     S
C66   N17    1.36383       .     S
N17   C66    1.36383       .     S
H19   N18    0.90031       .     S
N18   H19    0.90031       .     S
H20   N18    0.90050       .     S
N18   H20    0.90050       .     S
H21   N18    0.89993       .     S
N18   H21    0.89993       .     S
C69   N18    1.40737       .     S
N18   C69    1.40737       .     S
H23   N22    0.89882       .     S
N22   H23    0.89882       .     S
H24   N22    0.90122       .     S
N22   H24    0.90122       .     S
H25   N22    0.90001       .     S
N22   H25    0.90001       .     S
C70   N22    1.38768       .     S
N22   C70    1.38768       .     S
N27   N26    1.31662       .     S
N26   N27    1.31662       .     S
C73   N26    1.35963       .     S
N26   C73    1.35963       .     S
N28   N27    1.32714       .     S
N27   N28    1.32714       .     S
C74   N28    1.37335       .     S
N28   C74    1.37335       .     S
H30   N29    0.90114       .     S
N29   H30    0.90114       .     S
H31   N29    0.89980       .     S
N29   H31    0.89980       .     S
H32   N29    0.89943       .     S
N29   H32    0.89943       .     S
C78   N29    1.40155       .     S
N29   C78    1.40155       .     S
H34   N33    0.90001       .     S
N33   H34    0.90001       .     S
H35   N33    0.89844       .     S
N33   H35    0.89844       .     S
H36   N33    0.90099       .     S
N33   H36    0.90099       .     S
C77   N33    1.41021       .     S
N33   C77    1.41021       .     S
N38   N37    1.35192       .     S
N37   N38    1.35192       .     S
C123  N37    1.34450       .     S
N37   C123   1.34450       .     S
H40   N39    0.89958       .     S
N39   H40    0.89958       .     S
H41   N39    0.89992       .     S
N39   H41    0.89992       .     S
H42   N39    0.89938       .     S
N39   H42    0.89938       .     S
C126  N39    1.42262       .     S
N39   C126   1.42262       .     S
N44   N43    1.32971       .     S
N43   N44    1.32971       .     S
C81   N43    1.30652       .     S
N43   C81    1.30652       .     S
C85   N44    1.31050       .     S
N44   C85    1.31050       .     S
B127  N44    1.54272       .     S
N44   B127   1.54272       .     S
N46   N45    1.37025       .     S
N45   N46    1.37025       .     S
C87   N45    1.29015       .     S
N45   C87    1.29015       .     S
C91   N46    1.31336       .     S
N46   C91    1.31336       .     S
B127  N46    1.54921       .     S
N46   B127   1.54921       .     S
N48   N47    1.35500       .     S
N47   N48    1.35500       .     S
C93   N47    1.33523       .     S
N47   C93    1.33523       .     S
C97   N48    1.32672       .     S
N48   C97    1.32672       .     S
B129  N48    1.53743       .     S
N48   B129   1.53743       .     S
N50   N49    1.34379       .     S
N49   N50    1.34379       .     S
C99   N49    1.32183       .     S
N49   C99    1.32183       .     S
C103  N50    1.34274       .     S
N50   C103   1.34274       .     S
B129  N50    1.50429       .     S
N50   B129   1.50429       .     S
N52   N51    1.35063       .     S
N51   N52    1.35063       .     S
C105  N51    1.32358       .     S
N51   C105   1.32358       .     S
C109  N52    1.33711       .     S
N52   C109   1.33711       .     S
B131  N52    1.54173       .     S
N52   B131   1.54173       .     S
N54   N53    1.36054       .     S
N53   N54    1.36054       .     S
C111  N53    1.32168       .     S
N53   C111   1.32168       .     S
C115  N54    1.29995       .     S
N54   C115   1.29995       .     S
B131  N54    1.53582       .     S
N54   B131   1.53582       .     S
N56   N55    1.35766       .     S
N55   N56    1.35766       .     S
C117  N55    1.31570       .     S
N55   C117   1.31570       .     S
C121  N56    1.35373       .     S
N56   C121   1.35373       .     S
B131  N56    1.54093       .     S
N56   B131   1.54093       .     S
C58   C57    1.38185       .     S
C57   C58    1.38185       .     S
C63   C57    1.41757       .     S
C57   C63    1.41757       .     S
C59   C58    1.40869       .     S
C58   C59    1.40869       .     S
H60   C59    0.94063       .     S
C59   H60    0.94063       .     S
C61   C59    1.37052       .     S
C59   C61    1.37052       .     S
C62   C61    1.39665       .     S
C61   C62    1.39665       .     S
C63   C62    1.35165       .     S
C62   C63    1.35165       .     S
H64   C63    0.94097       .     S
C63   H64    0.94097       .     S
C66   C65    1.40234       .     S
C65   C66    1.40234       .     S
C71   C65    1.38413       .     S
C65   C71    1.38413       .     S
C67   C66    1.42743       .     S
C66   C67    1.42743       .     S
H68   C67    0.93910       .     S
C67   H68    0.93910       .     S
C69   C67    1.40905       .     S
C67   C69    1.40905       .     S
C70   C69    1.40579       .     S
C69   C70    1.40579       .     S
C71   C70    1.35687       .     S
C70   C71    1.35687       .     S
H72   C71    0.94112       .     S
C71   H72    0.94112       .     S
C74   C73    1.41218       .     S
C73   C74    1.41218       .     S
C79   C73    1.38313       .     S
C73   C79    1.38313       .     S
C75   C74    1.41062       .     S
C74   C75    1.41062       .     S
H76   C75    0.94016       .     S
C75   H76    0.94016       .     S
C77   C75    1.32507       .     S
C75   C77    1.32507       .     S
C78   C77    1.47952       .     S
C77   C78    1.47952       .     S
C79   C78    1.36369       .     S
C78   C79    1.36369       .     S
H80   C79    0.94123       .     S
C79   H80    0.94123       .     S
H82   C81    0.94140       .     S
C81   H82    0.94140       .     S
C83   C81    1.41135       .     S
C81   C83    1.41135       .     S
H84   C83    0.93921       .     S
C83   H84    0.93921       .     S
C85   C83    1.36408       .     S
C83   C85    1.36408       .     S
H86   C85    0.94714       .     S
C85   H86    0.94714       .     S
H88   C87    0.93917       .     S
C87   H88    0.93917       .     S
C89   C87    1.35891       .     S
C87   C89    1.35891       .     S
H90   C89    0.93960       .     S
C89   H90    0.93960       .     S
C91   C89    1.37577       .     S
C89   C91    1.37577       .     S
H92   C91    0.94083       .     S
C91   H92    0.94083       .     S
H94   C93    0.93785       .     S
C93   H94    0.93785       .     S
C95   C93    1.39473       .     S
C93   C95    1.39473       .     S
H96   C95    0.94139       .     S
C95   H96    0.94139       .     S
C97   C95    1.34134       .     S
C95   C97    1.34134       .     S
H98   C97    0.93997       .     S
C97   H98    0.93997       .     S
H100  C99    0.94206       .     S
C99   H100   0.94206       .     S
C101  C99    1.38103       .     S
C99   C101   1.38103       .     S
H102  C101   0.94385       .     S
C101  H102   0.94385       .     S
C103  C101   1.39648       .     S
C101  C103   1.39648       .     S
H104  C103   0.93933       .     S
C103  H104   0.93933       .     S
H106  C105   0.94141       .     S
C105  H106   0.94141       .     S
C107  C105   1.35859       .     S
C105  C107   1.35859       .     S
H108  C107   0.93961       .     S
C107  H108   0.93961       .     S
C109  C107   1.37177       .     S
C107  C109   1.37177       .     S
H110  C109   0.94105       .     S
C109  H110   0.94105       .     S
H112  C111   0.94054       .     S
C111  H112   0.94054       .     S
C113  C111   1.34970       .     S
C111  C113   1.34970       .     S
H114  C113   0.94124       .     S
C113  H114   0.94124       .     S
C115  C113   1.41134       .     S
C113  C115   1.41134       .     S
H116  C115   0.94150       .     S
C115  H116   0.94150       .     S
H118  C117   0.93966       .     S
C117  H118   0.93966       .     S
C119  C117   1.38409       .     S
C117  C119   1.38409       .     S
H120  C119   0.94102       .     S
C119  H120   0.94102       .     S
C121  C119   1.37347       .     S
C119  C121   1.37347       .     S
H122  C121   0.93934       .     S
C121  H122   0.93934       .     S
C124  C123   1.40717       .     S
C123  C124   1.40717       .     S
H125  C124   0.94139       .     S
C124  H125   0.94139       .     S
C126  C124   1.34260       .     S
C124  C126   1.34260       .     S
H128  B127   1.10038       .     S
B127  H128   1.10038       .     S
H130  B129   1.09631       .     S
B129  H130   1.09631       .     S
H132  B131   1.10149       .     S
B131  H132   1.10149       .     S
H134  C133   0.93895       .     S
C133  H134   0.93895       .     S
O135  C133   1.15728       .     S
C133  O135   1.15728       .     S
N140  C133   1.25163       .     S
C133  N140   1.25163       .     S
H137  C136   0.97139       .     S
C136  H137   0.97139       .     S
H138  C136   0.96881       .     S
C136  H138   0.96881       .     S
H139  C136   0.96882       .     S
C136  H139   0.96882       .     S
N140  C136   1.39900       .     S
C136  N140   1.39900       .     S
C141  N140   1.40726       .     S
N140  C141   1.40726       .     S
H142  C141   0.96834       .     S
C141  H142   0.96834       .     S
H143  C141   0.96937       .     S
C141  H143   0.96937       .     S
H144  C141   0.97279       .     S
C141  H144   0.97279       .     S
