data_I
_chemical_name_common  '/data/user2/wty/HOF/MOFDiff/mofdiff/data/test/185_h4ttf-tb-1d'
_cell_length_a 10.14870
_cell_length_b 16.00400
_cell_length_c 16.67480
_cell_angle_alpha 78.44200
_cell_angle_beta  87.88200
_cell_angle_gamma 72.79800
_space_group_name_H-M_alt      'P 1'


loop_
_space_group_symop_operation_xyz
  'x, y, z' 

loop_
_atom_site_label
_atom_site_fract_x
_atom_site_fract_y
_atom_site_fract_z
_atom_site_type_symbol
Cl0     0.4785   0.5179   0.2106    Cl
Cl1     0.5728    0.588   0.0542    Cl
C2       0.491    0.511   0.1102     C
H3     0.39786  0.52315  0.08645     H
H4     0.54509   0.4495  0.10538     H
Cl5     0.8833   0.6572   0.7236    Cl
Cl6     0.7546   0.6265   0.8747    Cl
C7       0.903   0.6219   0.8209     C
H8     0.95328  0.65746  0.84279     H
H9     0.96277  0.55924  0.83128     H
O10     0.3577   0.0704   0.1055     O
C11      0.255   0.0161   0.2473     C
H12    0.23323  0.03416  0.30017     H
H13    0.35269  0.00788  0.23636     H
H14    0.23368   0.9598  0.24864     H
C15      0.038   0.1498   0.2173     C
H16    0.98116  0.11438  0.24724     H
H17    0.98368  0.19285  0.17129     H
H18    0.06727  0.18191  0.25415     H
C19      0.242    0.111   0.1188     C
H20    0.19836  0.16474  0.08163     H
N21      0.172   0.0846   0.1831     N
S22     0.7804  0.55361  0.50475     S
S23     0.5872  0.36178  0.44732     S
S24    0.65601  0.40025  0.60301     S
S25     0.7374  0.50523  0.34899     S
O26        0.2   0.0517   0.4485     O
O27     0.1545   0.8576   0.5467     O
O28     0.0779   0.9366   0.4227     O
O29     0.2892     0.97   0.5693     O
C30     0.6608   0.4248   0.4951     C
C31     0.7174   0.4862   0.4555     C
C32     0.0316   0.8001   0.4639     C
C33     0.5034   0.2193   0.5279     C
C34     0.9016   0.5992   0.2675     C
C35     0.0912   0.8701   0.4799     C
C36     0.9232   0.6671   0.4332     C
C37       0.53   0.1366   0.5826     C
H38     0.5992  0.12123  0.62431     H
C39     0.3576   0.0977    0.515     C
C40     0.5858    0.261   0.6924     C
C41     0.9841   0.6596   0.5083     C
H42    0.98873  0.60841  0.54967     H
C43     0.3378   0.1759   0.4575     C
H44    0.27294  0.18883  0.41371     H
C45     0.6004   0.3046   0.6116     C
C46     0.2761   0.0358   0.5095     C
C47     0.0377   0.7234   0.5247     C
H48    0.07905  0.71623  0.57677     H
C49     0.5662   0.2868   0.5385     C
C50     0.8584   0.5997   0.4173     C
C51     0.4089   0.2344   0.4621     C
H52    0.39515  0.28657  0.42051     H
C53     0.8313    0.615   0.1942     C
H54    0.74238  0.60649  0.19601     H
C55     0.9684   0.8105   0.3893     C
H56    0.96264  0.86245  0.34866     H
C57     0.9131   0.7457   0.3726     C
H58    0.86881  0.75377   0.3212     H
C59     0.4587   0.0785   0.5771     C
H60    0.47723  0.02381   0.6158     H
C61     0.0409   0.6024   0.2624     C
H62    0.09655  0.58757  0.31079     H
C63     0.4424    0.206   0.7975     C
H64    0.35727  0.19536   0.8139     H
C65      0.456   0.2453   0.7197     C
H66    0.37989  0.26291  0.68224     H
C67     0.8465   0.5753   0.3464     C
C68     0.0168   0.6467   0.1154     C
C69     0.6934   0.2355   0.7506     C
H70    0.77929  0.24524  0.73454     H
O71     0.6267   0.1206   0.9929     O
C72     0.6783   0.1962   0.8313     C
H73    0.75233  0.18025  0.86999     H
O74      0.199   0.6701   0.0328     O
C75     0.8787   0.6411   0.1217     C
H76    0.82148  0.65597    0.074     H
C77     0.0945    0.627   0.1874     C
H78    0.18635   0.6306  0.18477     H
O79     0.4145    0.132   0.9593     O
C80     0.5519   0.1805   0.8548     C
O81     0.9997   0.6937   0.9721     O
C82     0.0713   0.6732   0.0344     C
C83     0.5348   0.1407    0.942     C
N84      0.387   0.7821   0.7961     N
O85      0.291   0.7029   0.8861     O
C86       0.35    0.767   0.8701     C
H87    0.36448  0.79887  0.90981     H
C88      0.371   0.7384   0.7276     C
H89    0.38881  0.67419  0.74815     H
H90    0.43691  0.74833  0.68491     H
H91    0.27689  0.76406  0.70466     H
C92      0.489   0.8366   0.7725     C
H93    0.50354  0.86219  0.81894     H
H94    0.45115  0.88475  0.72554     H
H95    0.57699  0.79772  0.75803     H
loop_
_geom_bond_atom_site_label_1
_geom_bond_atom_site_label_2
_geom_bond_distance
_geom_bond_site_symmetry_2
_ccdc_geom_bond_type
Cl0   C2     1.69740       .     S
C2    Cl0    1.69740       .     S
Cl1   C2     1.77944       .     S
C2    Cl1    1.77944       .     S
C2    H3     0.98805       .     S
H3    C2     0.98805       .     S
C2    H4     0.99267       .     S
H4    C2     0.99267       .     S
Cl5   C7     1.60667       .     S
C7    Cl5    1.60667       .     S
Cl6   C7     1.71449       .     S
C7    Cl6    1.71449       .     S
C7    H8     0.99311       .     S
H8    C7     0.99311       .     S
C7    H9     0.99093       .     S
H9    C7     0.99093       .     S
O10   C19    1.19890       .     S
C19   O10    1.19890       .     S
C11   H12    0.97954       .     S
H12   C11    0.97954       .     S
C11   H13    0.97602       .     S
H13   C11    0.97602       .     S
C11   H14    0.98288   1_545     S
H14   C11    0.98288   1_565     S
C11   N21    1.45174       .     S
N21   C11    1.45174       .     S
C15   H16    0.98084   1_455     S
H16   C15    0.98084   1_655     S
C15   H17    0.98081   1_455     S
H17   C15    0.98081   1_655     S
C15   H18    0.97990       .     S
H18   C15    0.97990       .     S
C15   N21    1.61407       .     S
N21   C15    1.61407       .     S
C19   H20    0.94941       .     S
H20   C19    0.94941       .     S
C19   N21    1.33135       .     S
N21   C19    1.33135       .     S
S22   C31    1.74611       .     S
C31   S22    1.74611       .     S
S22   C50    1.76809       .     S
C50   S22    1.76809       .     S
S23   C30    1.73824       .     S
C30   S23    1.73824       .     S
S23   C49    1.78696       .     S
C49   S23    1.78696       .     S
S24   C30    1.76523       .     S
C30   S24    1.76523       .     S
S24   C45    1.76053       .     S
C45   S24    1.76053       .     S
S25   C31    1.75540       .     S
C31   S25    1.75540       .     S
S25   C67    1.78796       .     S
C67   S25    1.78796       .     S
O26   C46    1.23853       .     S
C46   O26    1.23853       .     S
O27   C35    1.25739       .     S
C35   O27    1.25739       .     S
O28   C35    1.25634       .     S
C35   O28    1.25634       .     S
O29   C46    1.27559   1_565     S
C46   O29    1.27559   1_545     S
C30   C31    1.33319       .     S
C31   C30    1.33319       .     S
C32   C35    1.49150       .     S
C35   C32    1.49150       .     S
C32   C47    1.41402       .     S
C47   C32    1.41402       .     S
C32   C55    1.37817   1_455     S
C55   C32    1.37817   1_655     S
C33   C37    1.40701       .     S
C37   C33    1.40701       .     S
C33   C49    1.44793       .     S
C49   C33    1.44793       .     S
C33   C51    1.42003       .     S
C51   C33    1.42003       .     S
C34   C53    1.37869       .     S
C53   C34    1.37869       .     S
C34   C61    1.42851   1_655     S
C61   C34    1.42851   1_455     S
C34   C67    1.43541       .     S
C67   C34    1.43541       .     S
C36   C41    1.38481       .     S
C41   C36    1.38481       .     S
C36   C50    1.48774       .     S
C50   C36    1.48774       .     S
C36   C57    1.42688       .     S
C57   C36    1.42688       .     S
C37   H38    0.95017       .     S
H38   C37    0.95017       .     S
C37   C59    1.35412       .     S
C59   C37    1.35412       .     S
C39   C43    1.38225       .     S
C43   C39    1.38225       .     S
C39   C46    1.48344       .     S
C46   C39    1.48344       .     S
C39   C59    1.40854       .     S
C59   C39    1.40854       .     S
C40   C45    1.41202       .     S
C45   C40    1.41202       .     S
C40   C65    1.45302       .     S
C65   C40    1.45302       .     S
C40   C69    1.39888       .     S
C69   C40    1.39888       .     S
C41   H42    0.94995       .     S
H42   C41    0.94995       .     S
C41   C47    1.36552   1_655     S
C47   C41    1.36552   1_455     S
C43   H44    0.95063       .     S
H44   C43    0.95063       .     S
C43   C51    1.35482       .     S
C51   C43    1.35482       .     S
C45   C49    1.38431       .     S
C49   C45    1.38431       .     S
C47   H48    0.94956       .     S
H48   C47    0.94956       .     S
C50   C67    1.33724       .     S
C67   C50    1.33724       .     S
C51   H52    0.95065       .     S
H52   C51    0.95065       .     S
C53   H54    0.95019       .     S
H54   C53    0.95019       .     S
C53   C75    1.31943       .     S
C75   C53    1.31943       .     S
C55   H56    0.94989       .     S
H56   C55    0.94989       .     S
C55   C57    1.39267       .     S
C57   C55    1.39267       .     S
C57   H58    0.95031       .     S
H58   C57    0.95031       .     S
C59   H60    0.95034       .     S
H60   C59    0.95034       .     S
C61   H62    0.95081       .     S
H62   C61    0.95081       .     S
C61   C77    1.37623       .     S
C77   C61    1.37623       .     S
C63   H64    0.94926       .     S
H64   C63    0.94926       .     S
C63   C65    1.34491       .     S
C65   C63    1.34491       .     S
C63   C80    1.40300       .     S
C80   C63    1.40300       .     S
C65   H66    0.95005       .     S
H66   C65    0.95005       .     S
C68   C75    1.42934   1_455     S
C75   C68    1.42934   1_655     S
C68   C77    1.39064       .     S
C77   C68    1.39064       .     S
C68   C82    1.47107       .     S
C82   C68    1.47107       .     S
C69   H70    0.94985       .     S
H70   C69    0.94985       .     S
C69   C72    1.39014       .     S
C72   C69    1.39014       .     S
O71   C83    1.21052       .     S
C83   O71    1.21052       .     S
C72   H73    0.94986       .     S
H73   C72    0.94986       .     S
C72   C80    1.40580       .     S
C80   C72    1.40580       .     S
O74   C82    1.28168       .     S
C82   O74    1.28168       .     S
C75   H76    0.95029       .     S
H76   C75    0.95029       .     S
C77   H78    0.94968       .     S
H78   C77    0.94968       .     S
O79   C83    1.28514       .     S
C83   O79    1.28514       .     S
C80   C83    1.49187       .     S
C83   C80    1.49187       .     S
O81   C82    1.22191   1_656     S
C82   O81    1.22191   1_454     S
N84   C86    1.27355       .     S
C86   N84    1.27355       .     S
N84   C88    1.49036       .     S
C88   N84    1.49036       .     S
N84   C92    1.53414       .     S
C92   N84    1.53414       .     S
O85   C86    1.31299       .     S
C86   O85    1.31299       .     S
C86   H87    0.95239       .     S
H87   C86    0.95239       .     S
C88   H89    0.97964       .     S
H89   C88    0.97964       .     S
C88   H90    0.98069       .     S
H90   C88    0.98069       .     S
C88   H91    0.97941       .     S
H91   C88    0.97941       .     S
C92   H93    0.98002       .     S
H93   C92    0.98002       .     S
C92   H94    0.97974       .     S
H94   C92    0.97974       .     S
C92   H95    0.97898       .     S
H95   C92    0.97898       .     S
C2    Cl0    1.69740       .     S
Cl0   C2     1.69740       .     S
C2    Cl1    1.77944       .     S
Cl1   C2     1.77944       .     S
H3    C2     0.98805       .     S
C2    H3     0.98805       .     S
H4    C2     0.99267       .     S
C2    H4     0.99267       .     S
C7    Cl5    1.60667       .     S
Cl5   C7     1.60667       .     S
C7    Cl6    1.71449       .     S
Cl6   C7     1.71449       .     S
H8    C7     0.99311       .     S
C7    H8     0.99311       .     S
H9    C7     0.99093       .     S
C7    H9     0.99093       .     S
C19   O10    1.19890       .     S
O10   C19    1.19890       .     S
H12   C11    0.97954       .     S
C11   H12    0.97954       .     S
H13   C11    0.97602       .     S
C11   H13    0.97602       .     S
H14   C11    0.98288   1_565     S
C11   H14    0.98288   1_545     S
N21   C11    1.45174       .     S
C11   N21    1.45174       .     S
H16   C15    0.98084   1_655     S
C15   H16    0.98084   1_455     S
H17   C15    0.98081   1_655     S
C15   H17    0.98081   1_455     S
H18   C15    0.97990       .     S
C15   H18    0.97990       .     S
N21   C15    1.61407       .     S
C15   N21    1.61407       .     S
H20   C19    0.94941       .     S
C19   H20    0.94941       .     S
N21   C19    1.33135       .     S
C19   N21    1.33135       .     S
C31   S22    1.74611       .     S
S22   C31    1.74611       .     S
C50   S22    1.76809       .     S
S22   C50    1.76809       .     S
C30   S23    1.73824       .     S
S23   C30    1.73824       .     S
C49   S23    1.78696       .     S
S23   C49    1.78696       .     S
C30   S24    1.76523       .     S
S24   C30    1.76523       .     S
C45   S24    1.76053       .     S
S24   C45    1.76053       .     S
C31   S25    1.75540       .     S
S25   C31    1.75540       .     S
C67   S25    1.78796       .     S
S25   C67    1.78796       .     S
C46   O26    1.23853       .     S
O26   C46    1.23853       .     S
C35   O27    1.25739       .     S
O27   C35    1.25739       .     S
C35   O28    1.25634       .     S
O28   C35    1.25634       .     S
C46   O29    1.27559   1_545     S
O29   C46    1.27559   1_565     S
C31   C30    1.33319       .     S
C30   C31    1.33319       .     S
C35   C32    1.49150       .     S
C32   C35    1.49150       .     S
C47   C32    1.41402       .     S
C32   C47    1.41402       .     S
C55   C32    1.37817   1_655     S
C32   C55    1.37817   1_455     S
C37   C33    1.40701       .     S
C33   C37    1.40701       .     S
C49   C33    1.44793       .     S
C33   C49    1.44793       .     S
C51   C33    1.42003       .     S
C33   C51    1.42003       .     S
C53   C34    1.37869       .     S
C34   C53    1.37869       .     S
C61   C34    1.42851   1_455     S
C34   C61    1.42851   1_655     S
C67   C34    1.43541       .     S
C34   C67    1.43541       .     S
C41   C36    1.38481       .     S
C36   C41    1.38481       .     S
C50   C36    1.48774       .     S
C36   C50    1.48774       .     S
C57   C36    1.42688       .     S
C36   C57    1.42688       .     S
H38   C37    0.95017       .     S
C37   H38    0.95017       .     S
C59   C37    1.35412       .     S
C37   C59    1.35412       .     S
C43   C39    1.38225       .     S
C39   C43    1.38225       .     S
C46   C39    1.48344       .     S
C39   C46    1.48344       .     S
C59   C39    1.40854       .     S
C39   C59    1.40854       .     S
C45   C40    1.41202       .     S
C40   C45    1.41202       .     S
C65   C40    1.45302       .     S
C40   C65    1.45302       .     S
C69   C40    1.39888       .     S
C40   C69    1.39888       .     S
H42   C41    0.94995       .     S
C41   H42    0.94995       .     S
C47   C41    1.36552   1_455     S
C41   C47    1.36552   1_655     S
H44   C43    0.95063       .     S
C43   H44    0.95063       .     S
C51   C43    1.35482       .     S
C43   C51    1.35482       .     S
C49   C45    1.38431       .     S
C45   C49    1.38431       .     S
H48   C47    0.94956       .     S
C47   H48    0.94956       .     S
C67   C50    1.33724       .     S
C50   C67    1.33724       .     S
H52   C51    0.95065       .     S
C51   H52    0.95065       .     S
H54   C53    0.95019       .     S
C53   H54    0.95019       .     S
C75   C53    1.31943       .     S
C53   C75    1.31943       .     S
H56   C55    0.94989       .     S
C55   H56    0.94989       .     S
C57   C55    1.39267       .     S
C55   C57    1.39267       .     S
H58   C57    0.95031       .     S
C57   H58    0.95031       .     S
H60   C59    0.95034       .     S
C59   H60    0.95034       .     S
H62   C61    0.95081       .     S
C61   H62    0.95081       .     S
C77   C61    1.37623       .     S
C61   C77    1.37623       .     S
H64   C63    0.94926       .     S
C63   H64    0.94926       .     S
C65   C63    1.34491       .     S
C63   C65    1.34491       .     S
C80   C63    1.40300       .     S
C63   C80    1.40300       .     S
H66   C65    0.95005       .     S
C65   H66    0.95005       .     S
C75   C68    1.42934   1_655     S
C68   C75    1.42934   1_455     S
C77   C68    1.39064       .     S
C68   C77    1.39064       .     S
C82   C68    1.47107       .     S
C68   C82    1.47107       .     S
H70   C69    0.94985       .     S
C69   H70    0.94985       .     S
C72   C69    1.39014       .     S
C69   C72    1.39014       .     S
C83   O71    1.21052       .     S
O71   C83    1.21052       .     S
H73   C72    0.94986       .     S
C72   H73    0.94986       .     S
C80   C72    1.40580       .     S
C72   C80    1.40580       .     S
C82   O74    1.28168       .     S
O74   C82    1.28168       .     S
H76   C75    0.95029       .     S
C75   H76    0.95029       .     S
H78   C77    0.94968       .     S
C77   H78    0.94968       .     S
C83   O79    1.28514       .     S
O79   C83    1.28514       .     S
C83   C80    1.49187       .     S
C80   C83    1.49187       .     S
C82   O81    1.22191   1_454     S
O81   C82    1.22191   1_656     S
C86   N84    1.27355       .     S
N84   C86    1.27355       .     S
C88   N84    1.49036       .     S
N84   C88    1.49036       .     S
C92   N84    1.53414       .     S
N84   C92    1.53414       .     S
C86   O85    1.31299       .     S
O85   C86    1.31299       .     S
H87   C86    0.95239       .     S
C86   H87    0.95239       .     S
H89   C88    0.97964       .     S
C88   H89    0.97964       .     S
H90   C88    0.98069       .     S
C88   H90    0.98069       .     S
H91   C88    0.97941       .     S
C88   H91    0.97941       .     S
H93   C92    0.98002       .     S
C92   H93    0.98002       .     S
H94   C92    0.97974       .     S
C92   H94    0.97974       .     S
H95   C92    0.97898       .     S
C92   H95    0.97898       .     S
