data_I
_chemical_name_common  '/data/user2/wty/HOF/MOFDiff/mofdiff/data/test/185_hof-110'
_cell_length_a  8.50090
_cell_length_b 21.49390
_cell_length_c 25.00550
_cell_angle_alpha 65.63900
_cell_angle_beta  83.81000
_cell_angle_gamma 82.19500
_space_group_name_H-M_alt      'P 1'


loop_
_space_group_symop_operation_xyz
  'x, y, z' 

loop_
_atom_site_label
_atom_site_fract_x
_atom_site_fract_y
_atom_site_fract_z
_atom_site_type_symbol
S0     0.75678  0.47016  0.52875     S
S1     0.64519  0.58259   0.4202     S
S2     0.43891  0.65827  0.49695     S
S3       0.565  0.55044  0.60526     S
O4      0.4948  0.11787  0.50373     O
C5       0.642  0.54964  0.49718     C
C6      0.5599  0.58102  0.52837     C
O7      0.7098  0.01212   0.5197     O
C8      0.4422  0.61946  0.61266     C
C9      0.8022  0.52353  0.41273     C
C10     0.3867   0.6701  0.56274     C
C11     0.9659  0.41028  0.46826     C
C12     0.1097  0.33029  0.42954     C
C13     0.8526  0.47103  0.46162     C
C14     0.0365  0.37169   0.5223     C
H15    0.01226  0.38574  0.55389     H
C16     0.1811  0.29256  0.48371     C
C17      0.001  0.38772  0.42327     C
H18    0.95012  0.41184  0.38732     H
C19      0.858   0.5391  0.35049     C
C20     0.4012  0.61046  0.67392     C
C21     0.1402  0.31379  0.52992     C
H22    0.18455  0.28796  0.56696     H
O23     0.6811  0.03004   0.4281     O
C24     0.1968  0.76738  0.50495     C
H25    0.21046   0.7503  0.47507     H
C26     0.2827  0.73349  0.55521     C
C27     0.0897  0.82667   0.4972     C
C28     0.7474  0.55351  0.30878     C
H29    0.63721  0.55701   0.3199     H
O30      0.465  0.13218  0.41332     O
C31     0.0696  0.85239   0.5406     C
C32     0.0201  0.53875  0.33368     C
H33     0.0961   0.5322  0.36121     H
C34     0.2904  0.23368   0.4905     C
H35    0.33954  0.20912   0.5268     H
C36     0.2685  0.76283  0.59751     C
H37    0.33248  0.74307  0.63052     H
C38      0.795    0.563  0.25042     C
C39     0.2424   0.6174  0.69324     C
H40    0.16103  0.62953  0.66643     H
C41     0.1624  0.81967   0.5908     C
H42    0.15095  0.83739  0.62021     H
C43     0.0055   0.8615   0.4452     C
H44    0.02497    0.846  0.41436     H
C45     0.9591   0.5587  0.23441     C
C46     0.0695   0.5482  0.27552     C
C47     0.2022   0.6065  0.75208     C
C48     0.9526   0.9091   0.5343     C
H49    0.93171  0.92598  0.56424     H
C50     0.5186    0.593  0.71349     C
H51    0.62661  0.58723  0.70046     H
C52     0.7452    0.996   0.4781     C
C53     0.1518   0.3059   0.3861     C
H54    0.10507  0.32956  0.34931     H
C55     0.3246  0.21274   0.4483     C
C56     0.8706   0.9386   0.4832     C
C57     0.4377   0.1494   0.4569     C
C58     0.2568   0.2498   0.3937     C
H59    0.28428  0.23567  0.36225     H
O60     0.0974   0.5657  0.06756     O
C61     0.0063   0.5624  0.17694     C
C62     0.3198   0.5895  0.79191     C
C63     0.8986    0.916   0.4387     C
H64     0.8431   0.9387  0.40366     H
C65     0.4825   0.5837   0.7723     C
C66     0.2786   0.5814   0.8501     C
C67     0.6925   0.5752   0.2108     C
H68    0.58304  0.58355  0.22084     H
O69     0.9234   0.5789   0.9447     O
O70     0.8356   0.5799   0.0473     O
C71     0.8982   0.5689   0.1417     C
C72     0.0444   0.6132   0.7726     C
H73    0.96322  0.62524  0.74576     H
C74     0.7333   0.5767   0.1561     C
H75    0.65583  0.58249  0.12926     H
O76     0.3644   0.5724   0.0827     O
C77     0.1245    0.582   0.8699     C
C78     0.1528   0.5676   0.1577     C
C79     0.2209    0.555   0.2528     C
H80    0.30058  0.55468  0.27684     H
C81     0.5916   0.5729   0.8122     C
H82    0.70086  0.57039  0.79954     H
C83     0.3943   0.5755   0.8864     C
C84     0.2643   0.5624   0.1948     C
H85    0.37312  0.56369  0.18132     H
C86       0.07   0.5711   0.9317     C
C87     0.9456   0.5649   0.0833     C
C88     0.5556   0.5653   0.8698     C
H89    0.63631  0.55384  0.89677     H
C90     0.2122   0.5688   0.0951     C
O91     0.1978   0.5662    0.964     O
O92     0.4658   0.5683   0.9795     O
C93     0.0016   0.6033   0.8289     C
H94    0.89328  0.61024  0.84106     H
C95     0.3487   0.5672   0.9501     C
loop_
_geom_bond_atom_site_label_1
_geom_bond_atom_site_label_2
_geom_bond_distance
_geom_bond_site_symmetry_2
_ccdc_geom_bond_type
S0    C5     1.75911       .     S
C5    S0     1.75911       .     S
S0    C13    1.77904       .     S
C13   S0     1.77904       .     S
S1    C5     1.75412       .     S
C5    S1     1.75412       .     S
S1    C9     1.76338       .     S
C9    S1     1.76338       .     S
S2    C6     1.75109       .     S
C6    S2     1.75109       .     S
S2    C10    1.76777       .     S
C10   S2     1.76777       .     S
S3    C6     1.76019       .     S
C6    S3     1.76019       .     S
S3    C8     1.75755       .     S
C8    S3     1.75755       .     S
O4    C57    1.20195       .     S
C57   O4     1.20195       .     S
C5    C6     1.31872       .     S
C6    C5     1.31872       .     S
O7    C52    1.22237   1_545     S
C52   O7     1.22237   1_565     S
C8    C10    1.35357       .     S
C10   C8     1.35357       .     S
C8    C20    1.47110       .     S
C20   C8     1.47110       .     S
C9    C13    1.33979       .     S
C13   C9     1.33979       .     S
C9    C19    1.48776       .     S
C19   C9     1.48776       .     S
C10   C26    1.47328       .     S
C26   C10    1.47328       .     S
C11   C13    1.47454       .     S
C13   C11    1.47454       .     S
C11   C14    1.41040   1_655     S
C14   C11    1.41040   1_455     S
C11   C17    1.38857   1_655     S
C17   C11    1.38857   1_455     S
C12   C16    1.41360       .     S
C16   C12    1.41360       .     S
C12   C17    1.40141       .     S
C17   C12    1.40141       .     S
C12   C53    1.38485       .     S
C53   C12    1.38485       .     S
C14   H15    0.94996       .     S
H15   C14    0.94996       .     S
C14   C21    1.38015       .     S
C21   C14    1.38015       .     S
C16   C21    1.40341       .     S
C21   C16    1.40341       .     S
C16   C34    1.42519       .     S
C34   C16    1.42519       .     S
C17   H18    0.94996   1_455     S
H18   C17    0.94996   1_655     S
C19   C28    1.39054       .     S
C28   C19    1.39054       .     S
C19   C32    1.39660   1_655     S
C32   C19    1.39660   1_455     S
C20   C39    1.39359       .     S
C39   C20    1.39359       .     S
C20   C50    1.38593       .     S
C50   C20    1.38593       .     S
C21   H22    0.94998       .     S
H22   C21    0.94998       .     S
O23   C52    1.29592   1_545     S
C52   O23    1.29592   1_565     S
C24   H25    0.95000       .     S
H25   C24    0.95000       .     S
C24   C26    1.39339       .     S
C26   C24    1.39339       .     S
C24   C27    1.41763       .     S
C27   C24    1.41763       .     S
C26   C36    1.42588       .     S
C36   C26    1.42588       .     S
C27   C31    1.39350       .     S
C31   C27    1.39350       .     S
C27   C43    1.41973       .     S
C43   C27    1.41973       .     S
C28   H29    0.94993       .     S
H29   C28    0.94993       .     S
C28   C38    1.40871       .     S
C38   C28    1.40871       .     S
O30   C57    1.27799       .     S
C57   O30    1.27799       .     S
C31   C41    1.42381       .     S
C41   C31    1.42381       .     S
C31   C48    1.43036   1_455     S
C48   C31    1.43036   1_655     S
C32   H33    0.94993       .     S
H33   C32    0.94993       .     S
C32   C46    1.40728       .     S
C46   C32    1.40728       .     S
C34   H35    0.95061       .     S
H35   C34    0.95061       .     S
C34   C55    1.30028       .     S
C55   C34    1.30028       .     S
C36   H37    0.94995       .     S
H37   C36    0.94995       .     S
C36   C41    1.37786       .     S
C41   C36    1.37786       .     S
C38   C45    1.41064       .     S
C45   C38    1.41064       .     S
C38   C67    1.31122       .     S
C67   C38    1.31122       .     S
C39   H40    0.95011       .     S
H40   C39    0.95011       .     S
C39   C47    1.40193       .     S
C47   C39    1.40193       .     S
C41   H42    0.94918       .     S
H42   C41    0.94918       .     S
C43   H44    0.95002       .     S
H44   C43    0.95002       .     S
C43   C63    1.34540   1_455     S
C63   C43    1.34540   1_655     S
C45   C46    1.39556   1_655     S
C46   C45    1.39556   1_455     S
C45   C61    1.42215   1_655     S
C61   C45    1.42215   1_455     S
C46   C79    1.35111       .     S
C79   C46    1.35111       .     S
C47   C62    1.39290       .     S
C62   C47    1.39290       .     S
C47   C72    1.39411       .     S
C72   C47    1.39411       .     S
C48   H49    0.94952       .     S
H49   C48    0.94952       .     S
C48   C56    1.38720       .     S
C56   C48    1.38720       .     S
C50   H51    0.94999       .     S
H51   C50    0.94999       .     S
C50   C65    1.40483       .     S
C65   C50    1.40483       .     S
C52   C56    1.48899       .     S
C56   C52    1.48899       .     S
C53   H54    0.94907       .     S
H54   C53    0.94907       .     S
C53   C58    1.35721       .     S
C58   C53    1.35721       .     S
C55   C57    1.50720       .     S
C57   C55    1.50720       .     S
C55   C58    1.40661       .     S
C58   C55    1.40661       .     S
C56   C63    1.37412       .     S
C63   C56    1.37412       .     S
C58   H59    0.95049       .     S
H59   C58    0.95049       .     S
O60   C87    1.30818   1_455     S
C87   O60    1.30819   1_655     S
O60   C90    1.27731       .     S
C90   O60    1.27731       .     S
C61   C71    1.29564   1_455     S
C71   C61    1.29564   1_655     S
C61   C78    1.28809       .     S
C78   C61    1.28809       .     S
C62   C65    1.42348       .     S
C65   C62    1.42348       .     S
C62   C66    1.40281       .     S
C66   C62    1.40281       .     S
C63   H64    0.94990       .     S
H64   C63    0.94990       .     S
C65   C81    1.36364       .     S
C81   C65    1.36364       .     S
C66   C77    1.34988       .     S
C77   C66    1.34988       .     S
C66   C83    1.36787       .     S
C83   C66    1.36787       .     S
C67   H68    0.95001       .     S
H68   C67    0.95001       .     S
C67   C74    1.36256       .     S
C74   C67    1.36256       .     S
O69   C86    1.26005   1_655     S
C86   O69    1.26005   1_455     S
O70   C87    1.28411       .     S
C87   O70    1.28411       .     S
C71   C74    1.41419       .     S
C74   C71    1.41419       .     S
C71   C87    1.50651       .     S
C87   C71    1.50651       .     S
C72   H73    0.94960   1_455     S
H73   C72    0.94960   1_655     S
C72   C93    1.35019       .     S
C93   C72    1.35019       .     S
C74   H75    0.95068       .     S
H75   C74    0.95068       .     S
O76   C90    1.30270       .     S
C90   O76    1.30270       .     S
C77   C86    1.49466       .     S
C86   C77    1.49466       .     S
C77   C93    1.43738       .     S
C93   C77    1.43738       .     S
C78   C84    1.35899       .     S
C84   C78    1.35899       .     S
C78   C90    1.58295       .     S
C90   C78    1.58295       .     S
C79   H80    0.95044       .     S
H80   C79    0.95044       .     S
C79   C84    1.40538       .     S
C84   C79    1.40538       .     S
C81   H82    0.95020       .     S
H82   C81    0.95020       .     S
C81   C88    1.38538       .     S
C88   C81    1.38538       .     S
C83   C88    1.40400       .     S
C88   C83    1.40400       .     S
C83   C95    1.53963       .     S
C95   C83    1.53963       .     S
C84   H85    0.94982       .     S
H85   C84    0.94982       .     S
C86   O91    1.38986       .     S
O91   C86    1.38986       .     S
C88   H89    0.95030       .     S
H89   C88    0.95030       .     S
O91   C95    1.29305       .     S
C95   O91    1.29305       .     S
O92   C95    1.30786       .     S
C95   O92    1.30786       .     S
C93   H94    0.94992   1_455     S
H94   C93    0.94992   1_655     S
C5    S0     1.75911       .     S
S0    C5     1.75911       .     S
C13   S0     1.77904       .     S
S0    C13    1.77904       .     S
C5    S1     1.75412       .     S
S1    C5     1.75412       .     S
C9    S1     1.76338       .     S
S1    C9     1.76338       .     S
C6    S2     1.75109       .     S
S2    C6     1.75109       .     S
C10   S2     1.76777       .     S
S2    C10    1.76777       .     S
C6    S3     1.76019       .     S
S3    C6     1.76019       .     S
C8    S3     1.75755       .     S
S3    C8     1.75755       .     S
C57   O4     1.20195       .     S
O4    C57    1.20195       .     S
C6    C5     1.31872       .     S
C5    C6     1.31872       .     S
C52   O7     1.22237   1_565     S
O7    C52    1.22237   1_545     S
C10   C8     1.35357       .     S
C8    C10    1.35357       .     S
C20   C8     1.47110       .     S
C8    C20    1.47110       .     S
C13   C9     1.33979       .     S
C9    C13    1.33979       .     S
C19   C9     1.48776       .     S
C9    C19    1.48776       .     S
C26   C10    1.47328       .     S
C10   C26    1.47328       .     S
C13   C11    1.47454       .     S
C11   C13    1.47454       .     S
C14   C11    1.41040   1_455     S
C11   C14    1.41040   1_655     S
C17   C11    1.38857   1_455     S
C11   C17    1.38857   1_655     S
C16   C12    1.41360       .     S
C12   C16    1.41360       .     S
C17   C12    1.40141       .     S
C12   C17    1.40141       .     S
C53   C12    1.38485       .     S
C12   C53    1.38485       .     S
H15   C14    0.94996       .     S
C14   H15    0.94996       .     S
C21   C14    1.38015       .     S
C14   C21    1.38015       .     S
C21   C16    1.40341       .     S
C16   C21    1.40341       .     S
C34   C16    1.42519       .     S
C16   C34    1.42519       .     S
H18   C17    0.94996   1_655     S
C17   H18    0.94996   1_455     S
C28   C19    1.39054       .     S
C19   C28    1.39054       .     S
C32   C19    1.39660   1_455     S
C19   C32    1.39660   1_655     S
C39   C20    1.39359       .     S
C20   C39    1.39359       .     S
C50   C20    1.38593       .     S
C20   C50    1.38593       .     S
H22   C21    0.94998       .     S
C21   H22    0.94998       .     S
C52   O23    1.29592   1_565     S
O23   C52    1.29592   1_545     S
H25   C24    0.95000       .     S
C24   H25    0.95000       .     S
C26   C24    1.39339       .     S
C24   C26    1.39339       .     S
C27   C24    1.41763       .     S
C24   C27    1.41763       .     S
C36   C26    1.42588       .     S
C26   C36    1.42588       .     S
C31   C27    1.39350       .     S
C27   C31    1.39350       .     S
C43   C27    1.41973       .     S
C27   C43    1.41973       .     S
H29   C28    0.94993       .     S
C28   H29    0.94993       .     S
C38   C28    1.40871       .     S
C28   C38    1.40871       .     S
C57   O30    1.27799       .     S
O30   C57    1.27799       .     S
C41   C31    1.42381       .     S
C31   C41    1.42381       .     S
C48   C31    1.43036   1_655     S
C31   C48    1.43036   1_455     S
H33   C32    0.94993       .     S
C32   H33    0.94993       .     S
C46   C32    1.40728       .     S
C32   C46    1.40728       .     S
H35   C34    0.95061       .     S
C34   H35    0.95061       .     S
C55   C34    1.30028       .     S
C34   C55    1.30028       .     S
H37   C36    0.94995       .     S
C36   H37    0.94995       .     S
C41   C36    1.37786       .     S
C36   C41    1.37786       .     S
C45   C38    1.41064       .     S
C38   C45    1.41064       .     S
C67   C38    1.31122       .     S
C38   C67    1.31122       .     S
H40   C39    0.95011       .     S
C39   H40    0.95011       .     S
C47   C39    1.40193       .     S
C39   C47    1.40193       .     S
H42   C41    0.94918       .     S
C41   H42    0.94918       .     S
H44   C43    0.95002       .     S
C43   H44    0.95002       .     S
C63   C43    1.34540   1_655     S
C43   C63    1.34540   1_455     S
C46   C45    1.39556   1_455     S
C45   C46    1.39556   1_655     S
C61   C45    1.42215   1_455     S
C45   C61    1.42215   1_655     S
C79   C46    1.35111       .     S
C46   C79    1.35111       .     S
C62   C47    1.39290       .     S
C47   C62    1.39290       .     S
C72   C47    1.39411       .     S
C47   C72    1.39411       .     S
H49   C48    0.94952       .     S
C48   H49    0.94952       .     S
C56   C48    1.38720       .     S
C48   C56    1.38720       .     S
H51   C50    0.94999       .     S
C50   H51    0.94999       .     S
C65   C50    1.40483       .     S
C50   C65    1.40483       .     S
C56   C52    1.48899       .     S
C52   C56    1.48899       .     S
H54   C53    0.94907       .     S
C53   H54    0.94907       .     S
C58   C53    1.35721       .     S
C53   C58    1.35721       .     S
C57   C55    1.50720       .     S
C55   C57    1.50720       .     S
C58   C55    1.40661       .     S
C55   C58    1.40661       .     S
C63   C56    1.37412       .     S
C56   C63    1.37412       .     S
H59   C58    0.95049       .     S
C58   H59    0.95049       .     S
C87   O60    1.30819   1_655     S
O60   C87    1.30818   1_455     S
C90   O60    1.27731       .     S
O60   C90    1.27731       .     S
C71   C61    1.29564   1_655     S
C61   C71    1.29564   1_455     S
C78   C61    1.28809       .     S
C61   C78    1.28809       .     S
C65   C62    1.42348       .     S
C62   C65    1.42348       .     S
C66   C62    1.40281       .     S
C62   C66    1.40281       .     S
H64   C63    0.94990       .     S
C63   H64    0.94990       .     S
C81   C65    1.36364       .     S
C65   C81    1.36364       .     S
C77   C66    1.34988       .     S
C66   C77    1.34988       .     S
C83   C66    1.36787       .     S
C66   C83    1.36787       .     S
H68   C67    0.95001       .     S
C67   H68    0.95001       .     S
C74   C67    1.36256       .     S
C67   C74    1.36256       .     S
C86   O69    1.26005   1_455     S
O69   C86    1.26005   1_655     S
C87   O70    1.28411       .     S
O70   C87    1.28411       .     S
C74   C71    1.41419       .     S
C71   C74    1.41419       .     S
C87   C71    1.50651       .     S
C71   C87    1.50651       .     S
H73   C72    0.94960   1_655     S
C72   H73    0.94960   1_455     S
C93   C72    1.35019       .     S
C72   C93    1.35019       .     S
H75   C74    0.95068       .     S
C74   H75    0.95068       .     S
C90   O76    1.30270       .     S
O76   C90    1.30270       .     S
C86   C77    1.49466       .     S
C77   C86    1.49466       .     S
C93   C77    1.43738       .     S
C77   C93    1.43738       .     S
C84   C78    1.35899       .     S
C78   C84    1.35899       .     S
C90   C78    1.58295       .     S
C78   C90    1.58295       .     S
H80   C79    0.95044       .     S
C79   H80    0.95044       .     S
C84   C79    1.40538       .     S
C79   C84    1.40538       .     S
H82   C81    0.95020       .     S
C81   H82    0.95020       .     S
C88   C81    1.38538       .     S
C81   C88    1.38538       .     S
C88   C83    1.40400       .     S
C83   C88    1.40400       .     S
C95   C83    1.53963       .     S
C83   C95    1.53963       .     S
H85   C84    0.94982       .     S
C84   H85    0.94982       .     S
O91   C86    1.38986       .     S
C86   O91    1.38986       .     S
H89   C88    0.95030       .     S
C88   H89    0.95030       .     S
C95   O91    1.29305       .     S
O91   C95    1.29305       .     S
C95   O92    1.30786       .     S
O92   C95    1.30786       .     S
H94   C93    0.94992   1_655     S
C93   H94    0.94992   1_455     S
