data_I
_chemical_name_common  '/data/user2/wty/HOF/MOFDiff/mofdiff/data/test/186_pfc-73-cu'
_cell_length_a 21.16030
_cell_length_b 44.38400
_cell_length_c  8.02240
_cell_angle_alpha 90.00000
_cell_angle_beta  93.44100
_cell_angle_gamma 90.00000
_space_group_name_H-M_alt      'P 1'


loop_
_space_group_symop_operation_xyz
  'x, y, z' 

loop_
_atom_site_label
_atom_site_fract_x
_atom_site_fract_y
_atom_site_fract_z
_atom_site_type_symbol
Cu0     0.4926  0.28515  0.25873    Cu
N1      0.4305  0.25402   0.1745     N
N2       0.553  0.25266   0.3398     N
O3      0.5419  0.06444   0.2188     O
H4      0.5464  0.04597  0.25214     H
C5      0.4909   0.1742   0.2546     C
C6      0.4921  0.20779   0.2542     C
N7      0.5574  0.31633   0.3181     N
O8      0.4417  0.06428   0.2858     O
C9      0.6111  0.25697   0.4244     C
N10     0.4281  0.31763   0.2046     N
C11      0.339  0.28597   0.0921     C
C12     0.3724  0.25872   0.1013     C
O13     0.9177  0.29877   0.8246     O
C14     0.6448   0.2843   0.4306     C
O15     0.9422   0.2653   0.6381     O
C16     0.6113  0.36157   0.3311     C
H17    0.61995  0.38249   0.3224     H
C18     0.5505  0.34704   0.2932     C
C19     0.4384  0.15824   0.3006     C
H20    0.40208   0.1689    0.332     H
C21     0.4938  0.36255   0.2541     C
C22     0.2712   0.2861   0.0318     C
C23     0.6181  0.31195    0.376     C
O24     0.0343  0.29382   0.9516     O
C25     0.7119  0.28362   0.5009     C
C26     0.3778  0.36352   0.1695     C
H27    0.37133  0.38468  0.16294     H
C28     0.6347  0.22921     0.49     C
H29     0.6732  0.22619   0.5548     H
O30     0.5453  0.50552   0.1739     O
C31     0.6532  0.33986    0.381     C
H32    0.69686  0.34246  0.41278     H
C33     0.3339  0.34184   0.1363     C
H34       0.29  0.34471  0.10955     H
C35     0.3474  0.23042   0.0322     C
H36    0.30833  0.22774  0.96927     H
O37      0.458  0.50687   0.3149     O
C38     0.3902  0.20882   0.0743     C
H39    0.38707  0.18803  0.04668     H
C40     0.4911  0.11116   0.2509     C
O41     0.0616  0.26539   0.7406     O
C42     0.5415  0.22251   0.3408     C
C43     0.7313  0.30171   0.6441     C
H44    0.70118   0.3138  0.69641     H
C45     0.4363  0.34823   0.2167     C
C46     0.3671   0.3135   0.1495     C
C47     0.5433  0.12706   0.2061     C
H48    0.57988  0.11654   0.1747     H
C49     0.7562  0.26535   0.4324     C
H50    0.74406  0.25321  0.33841     H
C51      0.438  0.12688   0.3018     C
H52    0.40219  0.11622  0.33661     H
C53      0.543  0.15802   0.2064     C
H54    0.57922  0.16859  0.17309     H
C55     0.4412  0.22326   0.1689     C
C56     0.2233  0.29448   0.1412     C
H57    0.23489  0.30062  0.25226     H
C58     0.2517  0.27727   0.8726     C
H59    0.28244  0.27212  0.79601     H
C60     0.4951  0.39632   0.2498     C
C61     0.9055   0.2822   0.6995     C
C62     0.5917  0.20785   0.4425     C
H63    0.59389  0.18707  0.47042     H
C64     0.5348  0.41161   0.1459     C
H65    0.56113  0.40053  0.07612     H
C66     0.4929  0.07757   0.2545     C
C67     0.8182  0.26441   0.4983     C
H68    0.84734  0.25068  0.45423     H
C69     0.7929  0.30147   0.7044     C
H70    0.80542  0.31357  0.79839     H
C71     0.1613  0.29369    0.087     C
H72    0.12973  0.30049  0.15747     H
C73     0.5362  0.44293   0.1434     C
H74    0.56352   0.4532  0.07282     H
C75     0.8381  0.28365   0.6299     C
C76     0.1439  0.28266   0.9247     C
C77     0.4568  0.41288   0.3502     C
H78    0.43007  0.40274  0.42289     H
C79      0.189  0.27576   0.8226     C
H80    0.17729  0.26961  0.71165     H
C81     0.4572  0.44442   0.3454     C
H82     0.4299  0.45566  0.41164     H
C83     0.0762    0.281   0.8755     C
C84     0.4976  0.45902    0.244     C
C85     0.4997   0.4926   0.2426     C
H86    0.95307  0.29509  0.87423     H
H87    0.01831  0.26585  0.70378     H
H88    0.54762  0.52544  0.16912     H
loop_
_geom_bond_atom_site_label_1
_geom_bond_atom_site_label_2
_geom_bond_distance
_geom_bond_site_symmetry_2
_ccdc_geom_bond_type
H86   O24    1.79299   1_655     S
O24   H86    1.79299   1_455     S
H87   O15    1.66436   1_455     S
O15   H87    1.66436   1_655     S
Cu0   N1     1.99644       .     S
N1    Cu0    1.99644       .     S
Cu0   N2     2.00902       .     S
N2    Cu0    2.00902       .     S
Cu0   N7     1.98589       .     S
N7    Cu0    1.98589       .     S
Cu0   N10    2.01455       .     S
N10   Cu0    2.01455       .     S
N1    C12    1.34654       .     S
C12   N1     1.34654       .     S
N1    C55    1.38507       .     S
C55   N1     1.38507       .     S
N2    C9     1.38149       .     S
C9    N2     1.38149       .     S
N2    C42    1.36023       .     S
C42   N2     1.36023       .     S
O3    H4     0.86578       .     S
H4    O3     0.86578       .     S
O3    C66    1.23788       .     S
C66   O3     1.23788       .     S
C5    C6     1.49108       .     S
C6    C5     1.49108       .     S
C5    C19    1.38612       .     S
C19   C5     1.38612       .     S
C5    C53    1.38989       .     S
C53   C5     1.38989       .     S
C6    C42    1.38384       .     S
C42   C6     1.38384       .     S
C6    C55    1.41821       .     S
C55   C6     1.41821       .     S
N7    C18    1.38404       .     S
C18   N7     1.38404       .     S
N7    C23    1.35340       .     S
C23   N7     1.35340       .     S
O8    C66    1.27178       .     S
C66   O8     1.27178       .     S
C9    C14    1.40646       .     S
C14   C9     1.40646       .     S
C9    C28    1.41875       .     S
C28   C9     1.41875       .     S
N10   C45    1.37189       .     S
C45   N10    1.37189       .     S
N10   C46    1.35152       .     S
C46   N10    1.35152       .     S
C11   C12    1.40053       .     S
C12   C11    1.40053       .     S
C11   C22    1.48627       .     S
C22   C11    1.48627       .     S
C11   C46    1.42329       .     S
C46   C11    1.42329       .     S
C12   C35    1.45933       .     S
C35   C12    1.45933       .     S
O13   C61    1.25843       .     S
C61   O13    1.25843       .     S
O13   H86    0.84237       .     S
H86   O13    0.84237       .     S
C14   C23    1.40976       .     S
C23   C14    1.40976       .     S
C14   C25    1.49628       .     S
C25   C14    1.49628       .     S
O15   C61    1.20593       .     S
C61   O15    1.20593       .     S
C16   H17    0.94976       .     S
H17   C16    0.94976       .     S
C16   C18    1.45485       .     S
C18   C16    1.45485       .     S
C16   C31    1.35359       .     S
C31   C16    1.35359       .     S
C18   C21    1.40235       .     S
C21   C18    1.40235       .     S
C19   H20    0.94932       .     S
H20   C19    0.94932       .     S
C19   C51    1.39194       .     S
C51   C19    1.39194       .     S
C21   C45    1.38945       .     S
C45   C21    1.38945       .     S
C21   C60    1.49953       .     S
C60   C21    1.49953       .     S
C22   C56    1.42924       .     S
C56   C22    1.42924       .     S
C22   C58    1.37541   1_554     S
C58   C22    1.37541   1_556     S
C23   C31    1.44367       .     S
C31   C23    1.44367       .     S
O24   C83    1.24400       .     S
C83   O24    1.24400       .     S
C25   C43    1.44095       .     S
C43   C25    1.44095       .     S
C25   C49    1.37844       .     S
C49   C25    1.37844       .     S
C26   H27    0.95009       .     S
H27   C26    0.95009       .     S
C26   C33    1.35280       .     S
C33   C26    1.35280       .     S
C26   C45    1.44222       .     S
C45   C26    1.44222       .     S
C28   H29    0.94924       .     S
H29   C28    0.94924       .     S
C28   C62    1.35288       .     S
C62   C28    1.35288       .     S
O30   C85    1.27573       .     S
C85   O30    1.27573       .     S
O30   H88    0.88645       .     S
H88   O30    0.88645       .     S
C31   H32    0.95056       .     S
H32   C31    0.95056       .     S
C33   H34    0.94935       .     S
H34   C33    0.94935       .     S
C33   C46    1.44152       .     S
C46   C33    1.44152       .     S
C35   H36    0.94995   1_554     S
H36   C35    0.94995   1_556     S
C35   C38    1.34784       .     S
C38   C35    1.34784       .     S
O37   C85    1.25603       .     S
C85   O37    1.25603       .     S
C38   H39    0.95036       .     S
H39   C38    0.95036       .     S
C38   C55    1.43284       .     S
C55   C38    1.43284       .     S
C40   C47    1.37656       .     S
C47   C40    1.37656       .     S
C40   C51    1.40397       .     S
C51   C40    1.40397       .     S
C40   C66    1.49158       .     S
C66   C40    1.49158       .     S
O41   C83    1.30634       .     S
C83   O41    1.30634       .     S
O41   H87    0.94567       .     S
H87   O41    0.94567       .     S
C42   C62    1.45374       .     S
C62   C42    1.45374       .     S
C43   H44    0.94993       .     S
H44   C43    0.94993       .     S
C43   C69    1.36289       .     S
C69   C43    1.36289       .     S
C47   H48    0.95080       .     S
H48   C47    0.95080       .     S
C47   C53    1.37415       .     S
C53   C47    1.37415       .     S
C49   H50    0.94954       .     S
H50   C49    0.94954       .     S
C49   C67    1.38534       .     S
C67   C49    1.38534       .     S
C51   H52    0.94944       .     S
H52   C51    0.94944       .     S
C53   H54    0.95052       .     S
H54   C53    0.95052       .     S
C56   H57    0.94974       .     S
H57   C56    0.94974       .     S
C56   C71    1.35757       .     S
C71   C56    1.35757       .     S
C58   H59    0.94914       .     S
H59   C58    0.94914       .     S
C58   C79    1.36447       .     S
C79   C58    1.36447       .     S
C60   C64    1.39466       .     S
C64   C60    1.39466       .     S
C60   C77    1.38714       .     S
C77   C60    1.38714       .     S
C61   C75    1.50146       .     S
C75   C61    1.50146       .     S
C62   H63    0.94958       .     S
H63   C62    0.94958       .     S
C64   H65    0.95030       .     S
H65   C64    0.95030       .     S
C64   C73    1.39059       .     S
C73   C64    1.39059       .     S
C67   H68    0.95012       .     S
H68   C67    0.95012       .     S
C67   C75    1.40278       .     S
C75   C67    1.40278       .     S
C69   H70    0.95036       .     S
H70   C69    0.95036       .     S
C69   C75    1.40221       .     S
C75   C69    1.40221       .     S
C71   H72    0.94989       .     S
H72   C71    0.94989       .     S
C71   C76    1.41879   1_554     S
C76   C71    1.41879   1_556     S
C73   H74    0.94967       .     S
H74   C73    0.94967       .     S
C73   C84    1.38116       .     S
C84   C73    1.38116       .     S
C76   C79    1.33014       .     S
C79   C76    1.33014       .     S
C76   C83    1.46477       .     S
C83   C76    1.46477       .     S
C77   H78    0.94980       .     S
H78   C77    0.94980       .     S
C77   C81    1.40044       .     S
C81   C77    1.40044       .     S
C79   H80    0.94957       .     S
H80   C79    0.94957       .     S
C81   H82    0.94965       .     S
H82   C81    0.94965       .     S
C81   C84    1.37693       .     S
C84   C81    1.37693       .     S
C84   C85    1.49114       .     S
C85   C84    1.49114       .     S
O24   H86    1.79299   1_455     S
H86   O24    1.79299   1_655     S
O15   H87    1.66436   1_655     S
H87   O15    1.66436   1_455     S
N1    Cu0    1.99644       .     S
Cu0   N1     1.99644       .     S
N2    Cu0    2.00902       .     S
Cu0   N2     2.00902       .     S
N7    Cu0    1.98589       .     S
Cu0   N7     1.98589       .     S
N10   Cu0    2.01455       .     S
Cu0   N10    2.01455       .     S
C12   N1     1.34654       .     S
N1    C12    1.34654       .     S
C55   N1     1.38507       .     S
N1    C55    1.38507       .     S
C9    N2     1.38149       .     S
N2    C9     1.38149       .     S
C42   N2     1.36023       .     S
N2    C42    1.36023       .     S
H4    O3     0.86578       .     S
O3    H4     0.86578       .     S
C66   O3     1.23788       .     S
O3    C66    1.23788       .     S
C6    C5     1.49108       .     S
C5    C6     1.49108       .     S
C19   C5     1.38612       .     S
C5    C19    1.38612       .     S
C53   C5     1.38989       .     S
C5    C53    1.38989       .     S
C42   C6     1.38384       .     S
C6    C42    1.38384       .     S
C55   C6     1.41821       .     S
C6    C55    1.41821       .     S
C18   N7     1.38404       .     S
N7    C18    1.38404       .     S
C23   N7     1.35340       .     S
N7    C23    1.35340       .     S
C66   O8     1.27178       .     S
O8    C66    1.27178       .     S
C14   C9     1.40646       .     S
C9    C14    1.40646       .     S
C28   C9     1.41875       .     S
C9    C28    1.41875       .     S
C45   N10    1.37189       .     S
N10   C45    1.37189       .     S
C46   N10    1.35152       .     S
N10   C46    1.35152       .     S
C12   C11    1.40053       .     S
C11   C12    1.40053       .     S
C22   C11    1.48627       .     S
C11   C22    1.48627       .     S
C46   C11    1.42329       .     S
C11   C46    1.42329       .     S
C35   C12    1.45933       .     S
C12   C35    1.45933       .     S
C61   O13    1.25843       .     S
O13   C61    1.25843       .     S
H86   O13    0.84237       .     S
O13   H86    0.84237       .     S
C23   C14    1.40976       .     S
C14   C23    1.40976       .     S
C25   C14    1.49628       .     S
C14   C25    1.49628       .     S
C61   O15    1.20593       .     S
O15   C61    1.20593       .     S
H17   C16    0.94976       .     S
C16   H17    0.94976       .     S
C18   C16    1.45485       .     S
C16   C18    1.45485       .     S
C31   C16    1.35359       .     S
C16   C31    1.35359       .     S
C21   C18    1.40235       .     S
C18   C21    1.40235       .     S
H20   C19    0.94932       .     S
C19   H20    0.94932       .     S
C51   C19    1.39194       .     S
C19   C51    1.39194       .     S
C45   C21    1.38945       .     S
C21   C45    1.38945       .     S
C60   C21    1.49953       .     S
C21   C60    1.49953       .     S
C56   C22    1.42924       .     S
C22   C56    1.42924       .     S
C58   C22    1.37541   1_556     S
C22   C58    1.37541   1_554     S
C31   C23    1.44367       .     S
C23   C31    1.44367       .     S
C83   O24    1.24400       .     S
O24   C83    1.24400       .     S
C43   C25    1.44095       .     S
C25   C43    1.44095       .     S
C49   C25    1.37844       .     S
C25   C49    1.37844       .     S
H27   C26    0.95009       .     S
C26   H27    0.95009       .     S
C33   C26    1.35280       .     S
C26   C33    1.35280       .     S
C45   C26    1.44222       .     S
C26   C45    1.44222       .     S
H29   C28    0.94924       .     S
C28   H29    0.94924       .     S
C62   C28    1.35288       .     S
C28   C62    1.35288       .     S
C85   O30    1.27573       .     S
O30   C85    1.27573       .     S
H88   O30    0.88645       .     S
O30   H88    0.88645       .     S
H32   C31    0.95056       .     S
C31   H32    0.95056       .     S
H34   C33    0.94935       .     S
C33   H34    0.94935       .     S
C46   C33    1.44152       .     S
C33   C46    1.44152       .     S
H36   C35    0.94995   1_556     S
C35   H36    0.94995   1_554     S
C38   C35    1.34784       .     S
C35   C38    1.34784       .     S
C85   O37    1.25603       .     S
O37   C85    1.25603       .     S
H39   C38    0.95036       .     S
C38   H39    0.95036       .     S
C55   C38    1.43284       .     S
C38   C55    1.43284       .     S
C47   C40    1.37656       .     S
C40   C47    1.37656       .     S
C51   C40    1.40397       .     S
C40   C51    1.40397       .     S
C66   C40    1.49158       .     S
C40   C66    1.49158       .     S
C83   O41    1.30634       .     S
O41   C83    1.30634       .     S
H87   O41    0.94567       .     S
O41   H87    0.94567       .     S
C62   C42    1.45374       .     S
C42   C62    1.45374       .     S
H44   C43    0.94993       .     S
C43   H44    0.94993       .     S
C69   C43    1.36289       .     S
C43   C69    1.36289       .     S
H48   C47    0.95080       .     S
C47   H48    0.95080       .     S
C53   C47    1.37415       .     S
C47   C53    1.37415       .     S
H50   C49    0.94954       .     S
C49   H50    0.94954       .     S
C67   C49    1.38534       .     S
C49   C67    1.38534       .     S
H52   C51    0.94944       .     S
C51   H52    0.94944       .     S
H54   C53    0.95052       .     S
C53   H54    0.95052       .     S
H57   C56    0.94974       .     S
C56   H57    0.94974       .     S
C71   C56    1.35757       .     S
C56   C71    1.35757       .     S
H59   C58    0.94914       .     S
C58   H59    0.94914       .     S
C79   C58    1.36447       .     S
C58   C79    1.36447       .     S
C64   C60    1.39466       .     S
C60   C64    1.39466       .     S
C77   C60    1.38714       .     S
C60   C77    1.38714       .     S
C75   C61    1.50146       .     S
C61   C75    1.50146       .     S
H63   C62    0.94958       .     S
C62   H63    0.94958       .     S
H65   C64    0.95030       .     S
C64   H65    0.95030       .     S
C73   C64    1.39059       .     S
C64   C73    1.39059       .     S
H68   C67    0.95012       .     S
C67   H68    0.95012       .     S
C75   C67    1.40278       .     S
C67   C75    1.40278       .     S
H70   C69    0.95036       .     S
C69   H70    0.95036       .     S
C75   C69    1.40221       .     S
C69   C75    1.40221       .     S
H72   C71    0.94989       .     S
C71   H72    0.94989       .     S
C76   C71    1.41879   1_556     S
C71   C76    1.41879   1_554     S
H74   C73    0.94967       .     S
C73   H74    0.94967       .     S
C84   C73    1.38116       .     S
C73   C84    1.38116       .     S
C79   C76    1.33014       .     S
C76   C79    1.33014       .     S
C83   C76    1.46477       .     S
C76   C83    1.46477       .     S
H78   C77    0.94980       .     S
C77   H78    0.94980       .     S
C81   C77    1.40044       .     S
C77   C81    1.40044       .     S
H80   C79    0.94957       .     S
C79   H80    0.94957       .     S
H82   C81    0.94965       .     S
C81   H82    0.94965       .     S
C84   C81    1.37693       .     S
C81   C84    1.37693       .     S
C85   C84    1.49114       .     S
C84   C85    1.49114       .     S
