data_I
_chemical_name_common  '/data/user2/wty/HOF/MOFDiff/mofdiff/data/test/186_pfc-72-co'
_cell_length_a 18.03300
_cell_length_b 22.09600
_cell_length_c  9.19730
_cell_angle_alpha 90.00000
_cell_angle_beta  104.28900
_cell_angle_gamma 90.00000
_space_group_name_H-M_alt      'P 1'


loop_
_space_group_symop_operation_xyz
  'x, y, z' 

loop_
_atom_site_label
_atom_site_fract_x
_atom_site_fract_y
_atom_site_fract_z
_atom_site_type_symbol
Co0        0.5  0.56591     0.75    Co
N1      0.5593  0.50392   0.6797     N
C2         0.5   0.4123     0.75     C
N3      0.5685  0.62791   0.7101     N
C4      0.6607   0.5656   0.6213     C
C5         0.5   0.3446     0.75     C
C6      0.7341   0.5658   0.5715     C
C7      0.6338   0.4574   0.5419     C
H8     0.67056  0.45199  0.48463     H
C9      0.5432  0.44279   0.6674     C
C10     0.6173   0.5127   0.6094     C
C11     0.5872   0.4144   0.5752     C
H12    0.58413   0.3733  0.54384     H
C13     0.6397   0.6192   0.6796     C
C14     0.6792   0.6754   0.6828     C
H15    0.72844  0.68131  0.66546     H
C16     0.7319   0.5619   0.4222     C
H17    0.68444   0.5589  0.34948     H
C18     0.6332   0.7182   0.7151     C
H19    0.64436   0.7602   0.7267     H
C20        0.5   0.7195     0.75     C
C21     0.5641   0.6892    0.729     C
C22        0.5   0.2182     0.75     C
C23     0.4334   0.3143     0.69     C
H24    0.38667  0.33534  0.65208     H
C25     0.8053   0.5701   0.6741     C
H26    0.80829  0.57177  0.77863     H
C27        0.5    0.788     0.75     C
C28     0.8015   0.5622   0.3782     C
H29    0.80042  0.55852  0.27478     H
O30     0.9329   0.5651   0.2885     O
C31      0.869   0.5677   0.4782     C
C32        0.5   0.9132     0.75     C
O33     0.4457   0.1259    0.669     O
C34     0.4366   0.2514   0.6866     C
H35    0.39167  0.23023   0.6368     H
C36        0.5   0.1527     0.75     C
C37      0.871   0.5717   0.6243     C
H38      0.919  0.57578  0.69506     H
C39     0.5438     0.82   0.8642     C
H40    0.57612  0.79891   0.9456     H
O41      0.002   0.5797   0.5135     O
H42    0.05563  0.57724  0.53909     H
O43     0.5514   0.0074   0.8525     O
H44    0.55133  0.05024  0.86506     H
C45        0.5   0.9816     0.75     C
C46     0.5434   0.8817   0.8666     C
H47    0.57376  0.90266  0.95061     H
C48     0.9413   0.5668   0.4229     C
H49    0.98222  0.56563  0.28411     H
loop_
_geom_bond_atom_site_label_1
_geom_bond_atom_site_label_2
_geom_bond_distance
_geom_bond_site_symmetry_2
_ccdc_geom_bond_type
Co0   N1     1.94398       .     S
N1    Co0    1.94398       .     S
Co0   N3     1.93935       .     S
N3    Co0    1.93935       .     S
N1    C9     1.38034       .     S
C9    N1     1.38034       .     S
N1    C10    1.37239       .     S
C10   N1     1.37239       .     S
C2    C5     1.49590       .     S
C5    C2     1.49590       .     S
C2    C9     1.38926       .     S
C9    C2     1.38926       .     S
N3    C13    1.39357       .     S
C13   N3     1.39357       .     S
N3    C21    1.37016       .     S
C21   N3     1.37016       .     S
C4    C6     1.50368       .     S
C6    C4     1.50368       .     S
C4    C10    1.39588       .     S
C10   C4     1.39588       .     S
C4    C13    1.39062       .     S
C13   C4     1.39062       .     S
C5    C23    1.36675       .     S
C23   C5     1.36675       .     S
C6    C16    1.36663       .     S
C16   C6     1.36663       .     S
C6    C25    1.39640       .     S
C25   C6     1.39640       .     S
C7    H8     0.95053       .     S
H8    C7     0.95053       .     S
C7    C10    1.43464       .     S
C10   C7     1.43464       .     S
C7    C11    1.35269       .     S
C11   C7     1.35269       .     S
C9    C11    1.44024       .     S
C11   C9     1.44024       .     S
C11   H12    0.95032       .     S
H12   C11    0.95032       .     S
C13   C14    1.42827       .     S
C14   C13    1.42827       .     S
C14   H15    0.94912       .     S
H15   C14    0.94912       .     S
C14   C18    1.33879       .     S
C18   C14    1.33879       .     S
C16   H17    0.94955       .     S
H17   C16    0.94955       .     S
C16   C28    1.41060       .     S
C28   C16    1.41060       .     S
C18   H19    0.95001       .     S
H19   C18    0.95001       .     S
C18   C21    1.43468       .     S
C21   C18    1.43468       .     S
C20   C21    1.38993       .     S
C21   C20    1.38993       .     S
C20   C27    1.51358       .     S
C27   C20    1.51358       .     S
C22   C34    1.36242       .     S
C34   C22    1.36242       .     S
C22   C36    1.44729       .     S
C36   C22    1.44729       .     S
C23   H24    0.95016       .     S
H24   C23    0.95016       .     S
C23   C34    1.39171       .     S
C34   C23    1.39171       .     S
C25   H26    0.95024       .     S
H26   C25    0.95024       .     S
C25   C37    1.37207       .     S
C37   C25    1.37207       .     S
C27   C39    1.34814       .     S
C39   C27    1.34814       .     S
C28   H29    0.95005       .     S
H29   C28    0.95005       .     S
C28   C31    1.33779       .     S
C31   C28    1.33779       .     S
O30   C48    1.20827       .     S
C48   O30    1.20827       .     S
O30   H49    0.90028       .     S
H49   O30    0.90028       .     S
C31   C37    1.33820       .     S
C37   C31    1.33820       .     S
C31   C48    1.51204       .     S
C48   C31    1.51204       .     S
C32   C45    1.51137       .     S
C45   C32    1.51137       .     S
C32   C46    1.35378       .     S
C46   C32    1.35378       .     S
O33   C36    1.22654       .     S
C36   O33    1.22654       .     S
C34   H35    0.94967       .     S
H35   C34    0.94967       .     S
C37   H38    0.95018       .     S
H38   C37    0.95018       .     S
C39   H40    0.94971       .     S
H40   C39    0.94971       .     S
C39   C46    1.36355       .     S
C46   C39    1.36355       .     S
O41   H42    0.93877       .     S
H42   O41    0.93877       .     S
O41   C48    1.23430   1_455     S
C48   O41    1.23430   1_655     S
O43   H44    0.95365       .     S
H44   O43    0.95365       .     S
O43   C45    1.28122   1_545     S
C45   O43    1.28122   1_565     S
C46   H47    0.94996       .     S
H47   C46    0.94996       .     S
N1    Co0    1.94398       .     S
Co0   N1     1.94398       .     S
N3    Co0    1.93935       .     S
Co0   N3     1.93935       .     S
C9    N1     1.38034       .     S
N1    C9     1.38034       .     S
C10   N1     1.37239       .     S
N1    C10    1.37239       .     S
C5    C2     1.49590       .     S
C2    C5     1.49590       .     S
C9    C2     1.38926       .     S
C2    C9     1.38926       .     S
C13   N3     1.39357       .     S
N3    C13    1.39357       .     S
C21   N3     1.37016       .     S
N3    C21    1.37016       .     S
C6    C4     1.50368       .     S
C4    C6     1.50368       .     S
C10   C4     1.39588       .     S
C4    C10    1.39588       .     S
C13   C4     1.39062       .     S
C4    C13    1.39062       .     S
C23   C5     1.36675       .     S
C5    C23    1.36675       .     S
C16   C6     1.36663       .     S
C6    C16    1.36663       .     S
C25   C6     1.39640       .     S
C6    C25    1.39640       .     S
H8    C7     0.95053       .     S
C7    H8     0.95053       .     S
C10   C7     1.43464       .     S
C7    C10    1.43464       .     S
C11   C7     1.35269       .     S
C7    C11    1.35269       .     S
C11   C9     1.44024       .     S
C9    C11    1.44024       .     S
H12   C11    0.95032       .     S
C11   H12    0.95032       .     S
C14   C13    1.42827       .     S
C13   C14    1.42827       .     S
H15   C14    0.94912       .     S
C14   H15    0.94912       .     S
C18   C14    1.33879       .     S
C14   C18    1.33879       .     S
H17   C16    0.94955       .     S
C16   H17    0.94955       .     S
C28   C16    1.41060       .     S
C16   C28    1.41060       .     S
H19   C18    0.95001       .     S
C18   H19    0.95001       .     S
C21   C18    1.43468       .     S
C18   C21    1.43468       .     S
C21   C20    1.38993       .     S
C20   C21    1.38993       .     S
C27   C20    1.51358       .     S
C20   C27    1.51358       .     S
C34   C22    1.36242       .     S
C22   C34    1.36242       .     S
C36   C22    1.44729       .     S
C22   C36    1.44729       .     S
H24   C23    0.95016       .     S
C23   H24    0.95016       .     S
C34   C23    1.39171       .     S
C23   C34    1.39171       .     S
H26   C25    0.95024       .     S
C25   H26    0.95024       .     S
C37   C25    1.37207       .     S
C25   C37    1.37207       .     S
C39   C27    1.34814       .     S
C27   C39    1.34814       .     S
H29   C28    0.95005       .     S
C28   H29    0.95005       .     S
C31   C28    1.33779       .     S
C28   C31    1.33779       .     S
C48   O30    1.20827       .     S
O30   C48    1.20827       .     S
H49   O30    0.90028       .     S
O30   H49    0.90028       .     S
C37   C31    1.33820       .     S
C31   C37    1.33820       .     S
C48   C31    1.51204       .     S
C31   C48    1.51204       .     S
C45   C32    1.51137       .     S
C32   C45    1.51137       .     S
C46   C32    1.35378       .     S
C32   C46    1.35378       .     S
C36   O33    1.22654       .     S
O33   C36    1.22654       .     S
H35   C34    0.94967       .     S
C34   H35    0.94967       .     S
H38   C37    0.95018       .     S
C37   H38    0.95018       .     S
H40   C39    0.94971       .     S
C39   H40    0.94971       .     S
C46   C39    1.36355       .     S
C39   C46    1.36355       .     S
H42   O41    0.93877       .     S
O41   H42    0.93877       .     S
C48   O41    1.23430   1_655     S
O41   C48    1.23430   1_455     S
H44   O43    0.95365       .     S
O43   H44    0.95365       .     S
C45   O43    1.28122   1_565     S
O43   C45    1.28122   1_545     S
H47   C46    0.94996       .     S
C46   H47    0.94996       .     S
