data_I
_chemical_name_common  '/data/user2/wty/HOF/MOFDiff/mofdiff/data/test/186_pfc-71'
_cell_length_a 30.85540
_cell_length_b 30.10160
_cell_length_c  8.46940
_cell_angle_alpha 90.00000
_cell_angle_beta  99.04600
_cell_angle_gamma 90.00000
_space_group_name_H-M_alt      'P 1'


loop_
_space_group_symop_operation_xyz
  'x, y, z' 

loop_
_atom_site_label
_atom_site_fract_x
_atom_site_fract_y
_atom_site_fract_z
_atom_site_type_symbol
N0         0.5  0.47137     0.25     N
H1         0.5  0.44214     0.25     H
N2      0.5589  0.40125   0.3931     N
O3     0.69989  0.63849   0.7479     O
O4     0.74663  0.60298   0.6158     O
N5         0.5  0.33118     0.25     N
H6         0.5  0.36041     0.25     H
O7     0.73812   0.1913   0.6275     O
O8     0.69098  0.15924   0.7679     O
C9     0.53342   0.4975   0.3255     C
C10    0.57209  0.48239   0.4188     C
C11    0.59861  0.55203   0.5702     C
H12    0.56994  0.55635  0.59506     H
C13    0.52028  0.54245   0.2925     C
H14    0.53737  0.56805  0.32516     H
C15    0.58193  0.43749   0.4573     C
C16     0.6066  0.51604   0.4784     C
C17     0.5816  0.36468   0.4606     C
C18    0.63145  0.58213   0.6271     C
H19    0.62505  0.60655   0.6907     H
C20    0.61905  0.42333   0.5733     C
H21    0.63962  0.44211  0.63656     H
C22    0.60411  0.28552   0.4912     C
C23    0.67341  0.57681    0.592     C
C24    0.66673  0.22203   0.6065     C
C25    0.53279  0.30488   0.3301     C
C26    0.67679  0.25462   0.5057     C
H27    0.70509  0.25544  0.47498     H
C28    0.57087   0.3199   0.4252     C
C29    0.61889  0.37882   0.5745     C
H30    0.63942  0.36009  0.63813     H
C31      0.649  0.51128     0.44     C
H32    0.65511  0.48694  0.37562     H
C33    0.64585  0.28644   0.4483     C
H34    0.65318  0.30911  0.37909     H
C35    0.68204  0.54113   0.4937     C
H36    0.71035  0.53764  0.46458     H
C37    0.70839  0.60817   0.6531     C
C38    0.59405  0.25204   0.5958     C
H39    0.56582  0.25098  0.62699     H
C40    0.70057  0.18864   0.6717     C
C41    0.51989  0.25989   0.2979     C
H42    0.53623  0.23432  0.33675     H
C43    0.62524  0.22089   0.6525     C
H44     0.6185  0.19841  0.72356     H
H45    0.76307  0.17635    0.664     H
H46      0.765  0.62396  0.65401     H
loop_
_geom_bond_atom_site_label_1
_geom_bond_atom_site_label_2
_geom_bond_distance
_geom_bond_site_symmetry_2
_ccdc_geom_bond_type
H1    N2     2.36519       .     S
N2    H1     2.36519       .     S
H6    N2     2.36441       .     S
N2    H6     2.36441       .     S
N0    H1     0.87987       .     S
H1    N0     0.87987       .     S
N0    C9     1.37243       .     S
C9    N0     1.37243       .     S
N2    C15    1.36716       .     S
C15   N2     1.36716       .     S
N2    C17    1.37960       .     S
C17   N2     1.37960       .     S
O3    C37    1.26990       .     S
C37   O3     1.26990       .     S
O4    C37    1.27813       .     S
C37   O4     1.27813       .     S
O4    H46    0.87587       .     S
H46   O4     0.87587       .     S
N5    H6     0.87987       .     S
H6    N5     0.87987       .     S
N5    C25    1.37651       .     S
C25   N5     1.37651       .     S
O7    C40    1.27489       .     S
C40   O7     1.27489       .     S
O7    H45    0.90327       .     S
H45   O7     0.90327       .     S
O8    C40    1.26901       .     S
C40   O8     1.26901       .     S
C9    C10    1.39946       .     S
C10   C9     1.39946       .     S
C9    C13    1.42746       .     S
C13   C9     1.42746       .     S
C10   C15    1.41212       .     S
C15   C10    1.41212       .     S
C10   C16    1.49854       .     S
C16   C10    1.49854       .     S
C11   H12    0.94993       .     S
H12   C11    0.94993       .     S
C11   C16    1.37812       .     S
C16   C11    1.37812       .     S
C11   C18    1.38794       .     S
C18   C11    1.38794       .     S
C13   H14    0.95002       .     S
H14   C13    0.95002       .     S
C15   C20    1.45082       .     S
C20   C15    1.45082       .     S
C16   C31    1.40416       .     S
C31   C16    1.40416       .     S
C17   C28    1.40899       .     S
C28   C17    1.40899       .     S
C17   C29    1.44450       .     S
C29   C17    1.44450       .     S
C18   H19    0.95023       .     S
H19   C18    0.95023       .     S
C18   C23    1.38249       .     S
C23   C18    1.38249       .     S
C20   H21    0.95002       .     S
H21   C20    0.95002       .     S
C20   C29    1.33988       .     S
C29   C20    1.33988       .     S
C22   C28    1.50170       .     S
C28   C22    1.50170       .     S
C22   C33    1.39235       .     S
C33   C22    1.39235       .     S
C22   C38    1.40830       .     S
C38   C22    1.40830       .     S
C23   C35    1.40971       .     S
C35   C23    1.40971       .     S
C23   C37    1.46567       .     S
C37   C23    1.46567       .     S
C24   C26    1.36781       .     S
C26   C24    1.36781       .     S
C24   C40    1.49133       .     S
C40   C24    1.49133       .     S
C24   C43    1.39595       .     S
C43   C24    1.39595       .     S
C25   C28    1.39145       .     S
C28   C25    1.39145       .     S
C25   C41    1.42574       .     S
C41   C25    1.42574       .     S
C26   H27    0.94986       .     S
H27   C26    0.94986       .     S
C26   C33    1.38536       .     S
C33   C26    1.38536       .     S
C29   H30    0.94985       .     S
H30   C29    0.94985       .     S
C31   H32    0.94973       .     S
H32   C31    0.94973       .     S
C31   C35    1.38120       .     S
C35   C31    1.38120       .     S
C33   H34    0.94979       .     S
H34   C33    0.94979       .     S
C35   H36    0.95007       .     S
H36   C35    0.95007       .     S
C38   H39    0.94967       .     S
H39   C38    0.94967       .     S
C38   C43    1.37502       .     S
C43   C38    1.37502       .     S
C41   H42    0.95012       .     S
H42   C41    0.95012       .     S
C43   H44    0.95011       .     S
H44   C43    0.95011       .     S
N2    H1     2.36519       .     S
H1    N2     2.36519       .     S
N2    H6     2.36441       .     S
H6    N2     2.36441       .     S
H1    N0     0.87987       .     S
N0    H1     0.87987       .     S
C9    N0     1.37243       .     S
N0    C9     1.37243       .     S
C15   N2     1.36716       .     S
N2    C15    1.36716       .     S
C17   N2     1.37960       .     S
N2    C17    1.37960       .     S
C37   O3     1.26990       .     S
O3    C37    1.26990       .     S
C37   O4     1.27813       .     S
O4    C37    1.27813       .     S
H46   O4     0.87587       .     S
O4    H46    0.87587       .     S
H6    N5     0.87987       .     S
N5    H6     0.87987       .     S
C25   N5     1.37651       .     S
N5    C25    1.37651       .     S
C40   O7     1.27489       .     S
O7    C40    1.27489       .     S
H45   O7     0.90327       .     S
O7    H45    0.90327       .     S
C40   O8     1.26901       .     S
O8    C40    1.26901       .     S
C10   C9     1.39946       .     S
C9    C10    1.39946       .     S
C13   C9     1.42746       .     S
C9    C13    1.42746       .     S
C15   C10    1.41212       .     S
C10   C15    1.41212       .     S
C16   C10    1.49854       .     S
C10   C16    1.49854       .     S
H12   C11    0.94993       .     S
C11   H12    0.94993       .     S
C16   C11    1.37812       .     S
C11   C16    1.37812       .     S
C18   C11    1.38794       .     S
C11   C18    1.38794       .     S
H14   C13    0.95002       .     S
C13   H14    0.95002       .     S
C20   C15    1.45082       .     S
C15   C20    1.45082       .     S
C31   C16    1.40416       .     S
C16   C31    1.40416       .     S
C28   C17    1.40899       .     S
C17   C28    1.40899       .     S
C29   C17    1.44450       .     S
C17   C29    1.44450       .     S
H19   C18    0.95023       .     S
C18   H19    0.95023       .     S
C23   C18    1.38249       .     S
C18   C23    1.38249       .     S
H21   C20    0.95002       .     S
C20   H21    0.95002       .     S
C29   C20    1.33988       .     S
C20   C29    1.33988       .     S
C28   C22    1.50170       .     S
C22   C28    1.50170       .     S
C33   C22    1.39235       .     S
C22   C33    1.39235       .     S
C38   C22    1.40830       .     S
C22   C38    1.40830       .     S
C35   C23    1.40971       .     S
C23   C35    1.40971       .     S
C37   C23    1.46567       .     S
C23   C37    1.46567       .     S
C26   C24    1.36781       .     S
C24   C26    1.36781       .     S
C40   C24    1.49133       .     S
C24   C40    1.49133       .     S
C43   C24    1.39595       .     S
C24   C43    1.39595       .     S
C28   C25    1.39145       .     S
C25   C28    1.39145       .     S
C41   C25    1.42574       .     S
C25   C41    1.42574       .     S
H27   C26    0.94986       .     S
C26   H27    0.94986       .     S
C33   C26    1.38536       .     S
C26   C33    1.38536       .     S
H30   C29    0.94985       .     S
C29   H30    0.94985       .     S
H32   C31    0.94973       .     S
C31   H32    0.94973       .     S
C35   C31    1.38120       .     S
C31   C35    1.38120       .     S
H34   C33    0.94979       .     S
C33   H34    0.94979       .     S
H36   C35    0.95007       .     S
C35   H36    0.95007       .     S
H39   C38    0.94967       .     S
C38   H39    0.94967       .     S
C43   C38    1.37502       .     S
C38   C43    1.37502       .     S
H42   C41    0.95012       .     S
C41   H42    0.95012       .     S
H44   C43    0.95011       .     S
C43   H44    0.95011       .     S
