data_I
_chemical_name_common  '/data/user2/wty/HOF/MOFDiff/mofdiff/data/test/187_2d-ms'
_cell_length_a 21.02170
_cell_length_b 16.91000
_cell_length_c 27.02420
_cell_angle_alpha 90.00000
_cell_angle_beta  96.21800
_cell_angle_gamma 90.00000
_space_group_name_H-M_alt      'P 1'


loop_
_space_group_symop_operation_xyz
  'x, y, z' 

loop_
_atom_site_label
_atom_site_fract_x
_atom_site_fract_y
_atom_site_fract_z
_atom_site_type_symbol
O0        0.91  0.23519  0.43572     O
N1     0.01258  0.27275  0.44604     N
C2     0.96743  0.21726  0.44453     C
C3     0.98815  0.13238  0.45326     C
H4     0.00833  0.12639  0.48748     H
H5     0.01885  0.11805  0.42994     H
H6     0.95071  0.09764  0.44801     H
C7     0.99442   0.3551   0.4368     C
H8     0.00046  0.36905  0.40242     H
H9     0.02121  0.38933  0.45974     H
H10    0.94938  0.36235  0.44203     H
C11    0.08094   0.2549  0.45411     C
H12    0.08853  0.21393  0.47968     H
H13    0.10459  0.30288  0.46509     H
H14    0.09554  0.23609  0.42296     H
O15     0.5824   0.6669  0.30767     O
N16    0.48549   0.6175  0.31658     N
C17    0.52533   0.6762  0.31162     C
C18     0.4168   0.6267  0.32007     C
H19    0.40804  0.68087  0.33023     H
H20    0.40341  0.58945  0.34474     H
H21      0.393  0.61581  0.28756     H
C22    0.50999  0.53675  0.31719     C
H23    0.55332  0.53682  0.30699     H
H24    0.48202  0.50411   0.2941     H
H25    0.51107  0.51507  0.35091     H
C26     0.4965   0.7605  0.31221     C
H27    0.47925  0.76939    0.344     H
H28    0.46216  0.76575  0.28488     H
H29       0.53  0.79954  0.30814     H
O30    0.35075  0.56583  0.64707     O
N31    0.34569  0.49699   0.5759     N
C32    0.33028  0.50693  0.62183     C
C33    0.28838   0.4461  0.64238     C
H34    0.28231  0.45959  0.67682     H
H35    0.30871  0.39398  0.64156     H
H36    0.24676   0.4448  0.62219     H
C37    0.38704    0.554  0.55427     C
H38    0.40326  0.59244  0.57972     H
H39    0.36249  0.58172  0.52661     H
H40    0.42307   0.5262  0.54197     H
C41      0.318   0.4347  0.54278     C
H42    0.27678  0.45256  0.52612     H
H43    0.31159  0.38703  0.56223     H
H44     0.3471  0.42283  0.51778     H
C45     0.4728   0.0795   0.4367     C
H46    0.50801  0.04725   0.4268     H
C47     0.4952   0.0628   0.4195     C
H48    0.45194  0.05136  0.42784     H
O49    0.50949   0.2937  0.41909     O
N50     0.5932    0.243   0.3866     N
C51     0.5393    0.281   0.3824     C
H52    0.49025  0.12273  0.45828     H
C53     0.4712   0.2029   0.4309     C
O54     0.4882   0.2758   0.4325     O
N55     0.5113   0.1462   0.4317     N
C56     0.6191   0.2144   0.4367     C
H57    0.59132  0.23223  0.46139     H
H58    0.66228  0.23561  0.44519     H
H59      0.582  0.23058    0.429     H
H60    0.62077   0.1565  0.43661     H
C61     0.5806   0.1731   0.4336     C
H62    0.60104  0.14701  0.40703     H
H63    0.60352  0.15917  0.46594     H
C64     0.6279   0.2246   0.3436     C
H65    0.60543   0.1825   0.3238     H
H66    0.67136  0.20689  0.35533     H
H67    0.63015  0.27196  0.32299     H
H68    0.61446  0.22884  0.32361     H
C69     0.5901    0.221    0.291     C
H70    0.59517  0.16635  0.28009     H
H71    0.60592  0.25726  0.26679     H
H72    0.50883  0.26725  0.30668     H
C73     0.4779   0.1825   0.2861     C
O74     0.4917   0.1133   0.2733     O
C75     0.4085   0.2037   0.2915     C
H76    0.38223   0.1557  0.28866     H
H77    0.39273  0.24099  0.26519     H
H78    0.40582  0.22816  0.32409     H
N79     0.5212   0.2373   0.2947     N
C80     0.5149   0.3119   0.3299     C
H81    0.47399   0.3393  0.33111     H
H82    0.54625  0.34865  0.31849     H
C83     0.5067   0.3195   0.3067     C
H84    0.52667  0.33215   0.3402     H
H85    0.46028  0.32631  0.30533     H
H86    0.52355   0.3549   0.2825     H
O87     0.3627   0.1581  0.43396     O
C88     0.4015   0.1756   0.4271     C
H89    0.39242  0.15292  0.45893     H
H90    0.37316  0.22085  0.41886     H
C91     0.3877   0.1478   0.3877     C
H92    0.39412  0.13547  0.40089     H
C93     0.3531   0.1821   0.3421     C
H94    0.30922  0.19511  0.34832     H
H95    0.35214   0.1437  0.31492     H
H96    0.37502  0.23024  0.33301     H
N97      0.436   0.1125   0.3922     N
H98    0.44479  0.04657  0.45487     H
C99     0.4677    0.098   0.3403     C
H100   0.50929  0.12472  0.34201     H
H101   0.43929  0.11934  0.31233     H
H102   0.47368  0.04113  0.33534     H
H103   0.49706  0.05394  0.38382     H
H104   0.52592  0.02799  0.43865     H
O105   0.25235  0.24479  0.45061     O
H106   0.24444  0.25565  0.47965     H
H107   0.28836  0.22341  0.45024     H
Si108  0.20153  0.32161  0.30458    Si
Si109  0.31727  0.42254  0.28342    Si
Si110  0.36543   0.4264  0.39667    Si
Si111  0.24947   0.3237  0.41801    Si
Si112  0.28547  0.57704  0.40943    Si
Si113  0.12095   0.4706  0.31833    Si
Si114  0.23653  0.57399  0.29697    Si
Si115  0.16945   0.4728  0.43123    Si
O116   0.26202  0.35527  0.27965     O
O117   0.17793  0.24276  0.27445     O
H118   0.14764  0.22214  0.28774     H
O119   0.22205  0.30125  0.36215     O
O120   0.31981  0.36133  0.41842     O
O121   0.43791  0.41788   0.4206     O
H122   0.45072  0.37162  0.41619     H
O123   0.34278   0.5134  0.41109     O
O124   0.14454  0.38561  0.30083     O
O125   0.36567  0.40954  0.24279     O
H126   0.34759  0.42161  0.21455     H
O127   0.28229  0.50744  0.27702     O
O128   0.35865  0.41737  0.33706     O
O129   0.16559  0.53829  0.29838     O
O130   0.30669  0.65293  0.44238     O
H131    0.3426  0.66862  0.43548     H
O132   0.22888   0.6485  0.26023     O
H133   0.26524  0.66605  0.25586     H
O134   0.26515  0.60043  0.35209     O
O135   0.12264   0.4907  0.47245     O
H136   0.14427  0.49795  0.50008     H
O137   0.22479   0.5386  0.43206     O
O138   0.20292  0.38696  0.43986     O
O139   0.12705  0.47324  0.37795     O
O140    0.0475  0.48163  0.29752     O
H141   0.04297  0.52417  0.28147     H
O142    0.1566  0.46827  0.06573     O
N143   0.18108   0.3852     0.13     N
C144   0.18411  0.40723  0.08273     C
C145   0.22234  0.35708  0.05098     C
H146   0.22523  0.38358  0.01905     H
H147   0.20131  0.30569  0.04513     H
H148   0.26544  0.34922  0.06802     H
C149    0.1461   0.4332   0.1627     C
H150   0.10769  0.40471  0.17021     H
H151   0.13362   0.4833  0.14619     H
H152   0.17344  0.44385   0.1937     H
C153    0.2107   0.3136  0.15165     C
H154   0.25222  0.32659  0.16984     H
H155   0.21677  0.27572  0.12511     H
H156   0.18289  0.29012  0.17459     H
loop_
_geom_bond_atom_site_label_1
_geom_bond_atom_site_label_2
_geom_bond_distance
_geom_bond_site_symmetry_2
_ccdc_geom_bond_type
H107  O87    2.00109       .     S
O87   H107   2.00109       .     S
H122  O49    1.80212       .     S
O49   H122   1.80212       .     S
H122  O54    1.83446       .     S
O54   H122   1.83446       .     S
O0    C2     1.24252       .     S
C2    O0     1.24252       .     S
N1    C2     1.33214   1_455     S
C2    N1     1.33214   1_655     S
N1    C7     1.45829   1_455     S
C7    N1     1.45829   1_655     S
N1    C11    1.46146       .     S
C11   N1     1.46146       .     S
C2    C3     1.51105       .     S
C3    C2     1.51105       .     S
C3    H4     0.98002   1_655     S
H4    C3     0.98002   1_455     S
C3    H5     0.98004   1_655     S
H5    C3     0.98004   1_455     S
C3    H6     0.98005       .     S
H6    C3     0.98005       .     S
C7    H8     0.98007   1_655     S
H8    C7     0.98007   1_455     S
C7    H9     0.98025   1_655     S
H9    C7     0.98025   1_455     S
C7    H10    0.98003       .     S
H10   C7     0.98003       .     S
C11   H12    0.97931       .     S
H12   C11    0.97931       .     S
C11   H13    0.98058       .     S
H13   C11    0.98058       .     S
C11   H14    0.97978       .     S
H14   C11    0.97978       .     S
O15   C17    1.22604       .     S
C17   O15    1.22604       .     S
N16   C17    1.31491       .     S
C17   N16    1.31491       .     S
N16   C18    1.46550       .     S
C18   N16    1.46550       .     S
N16   C22    1.45885       .     S
C22   N16    1.45885       .     S
C17   C26    1.54975       .     S
C26   C17    1.54975       .     S
C18   H19    0.97946       .     S
H19   C18    0.97946       .     S
C18   H20    0.98037       .     S
H20   C18    0.98037       .     S
C18   H21    0.98024       .     S
H21   C18    0.98024       .     S
C22   H23    0.97982       .     S
H23   C22    0.97982       .     S
C22   H24    0.97992       .     S
H24   C22    0.97992       .     S
C22   H25    0.98022       .     S
H25   C22    0.98022       .     S
C26   H27    0.97961       .     S
H27   C26    0.97961       .     S
C26   H28    0.97928       .     S
H28   C26    0.97928       .     S
C26   H29    0.98012       .     S
H29   C26    0.98012       .     S
O30   C32    1.25652       .     S
C32   O30    1.25652       .     S
N31   C32    1.32700       .     S
C32   N31    1.32700       .     S
N31   C37    1.46175       .     S
C37   N31    1.46175       .     S
N31   C41    1.46170       .     S
C41   N31    1.46170       .     S
C32   C33    1.49943       .     S
C33   C32    1.49943       .     S
C33   H34    0.97994       .     S
H34   C33    0.97994       .     S
C33   H35    0.98080       .     S
H35   C33    0.98080       .     S
C33   H36    0.97993       .     S
H36   C33    0.97993       .     S
C37   H38    0.98031       .     S
H38   C37    0.98031       .     S
C37   H39    0.98043       .     S
H39   C37    0.98043       .     S
C37   H40    0.97964       .     S
H40   C37    0.97964       .     S
C41   H42    0.97992       .     S
H42   C41    0.97992       .     S
C41   H43    0.97958       .     S
H43   C41    0.97958       .     S
C41   H44    0.98004       .     S
H44   C41    0.98004       .     S
C45   H46    0.97966       .     S
H46   C45    0.97966       .     S
C45   C47    0.75163       .     S
C47   C45    0.75163       .     S
C45   H48    0.67328       .     S
H48   C45    0.67328       .     S
C45   H52    0.98118       .     S
H52   C45    0.98118       .     S
C45   N55    1.40325       .     S
N55   C45    1.40325       .     S
C45   N97    1.46783       .     S
N97   C45    1.46783       .     S
C45   H98    0.98006       .     S
H98   C45    0.98006       .     S
H46   C47    0.41118       .     S
C47   H46    0.41118       .     S
H46   H104   0.56944       .     S
H104  H46    0.56944       .     S
C47   H48    0.97960       .     S
H48   C47    0.97960       .     S
C47   N55    1.47919       .     S
N55   C47    1.47919       .     S
C47   N97    1.61260       .     S
N97   C47    1.61260       .     S
C47   H103   0.98075       .     S
H103  C47    0.98075       .     S
C47   H104   0.97926       .     S
H104  C47    0.97926       .     S
H48   N97    1.42791       .     S
N97   H48    1.42791       .     S
O49   C51    1.24761       .     S
C51   O49    1.24761       .     S
O49   O54    0.67704       .     S
O54   O49    0.67704       .     S
N50   C51    1.29683       .     S
C51   N50    1.29683       .     S
N50   C56    1.48450       .     S
C56   N50    1.48450       .     S
N50   H59    1.21281       .     S
H59   N50    1.21281       .     S
N50   C64    1.47067       .     S
C64   N50    1.47067       .     S
C51   C80    1.54641       .     S
C80   C51    1.54641       .     S
H52   N55    0.96858       .     S
N55   H52    0.96858       .     S
C53   O54    1.28292       .     S
O54   C53    1.28292       .     S
C53   N55    1.27531       .     S
N55   C53    1.27531       .     S
C53   C88    1.52902       .     S
C88   C53    1.52902       .     S
N55   C61    1.52172       .     S
C61   N55    1.52172       .     S
C56   H57    0.98058       .     S
H57   C56    0.98058       .     S
C56   H58    0.97986       .     S
H58   C56    0.97986       .     S
C56   H59    0.83142       .     S
H59   C56    0.83142       .     S
C56   H60    0.97973       .     S
H60   C56    0.97973       .     S
C56   C61    1.06541       .     S
C61   C56    1.06541       .     S
C56   H63    1.28840       .     S
H63   C56    1.28840       .     S
H57   C61    1.25615       .     S
C61   H57    1.25615       .     S
H59   C61    0.98075       .     S
C61   H59    0.98075       .     S
H60   C61    0.88522       .     S
C61   H60    0.88522       .     S
C61   H62    0.98065       .     S
H62   C61    0.98065       .     S
C61   H63    0.97991       .     S
H63   C61    0.97991       .     S
C64   H65    0.98056       .     S
H65   C64    0.98056       .     S
C64   H66    0.98087       .     S
H66   C64    0.98087       .     S
C64   H67    0.97956       .     S
H67   C64    0.97956       .     S
C64   H68    0.58629       .     S
H68   C64    0.58629       .     S
C64   C69    1.55275       .     S
C69   C64    1.55275       .     S
H65   C69    1.11871       .     S
C69   H65    1.11871       .     S
H68   C69    0.97912       .     S
C69   H68    0.97912       .     S
C69   H70    0.97934       .     S
H70   C69    0.97934       .     S
C69   H71    0.98069       .     S
H71   C69    0.98069       .     S
C69   N79    1.48835       .     S
N79   C69    1.48835       .     S
H72   N79    0.66871       .     S
N79   H72    0.66871       .     S
H72   C80    0.98121       .     S
C80   H72    0.98121       .     S
H72   C83    0.88468       .     S
C83   H72    0.88468       .     S
C73   O74    1.26287       .     S
O74   C73    1.26287       .     S
C73   C75    1.52458       .     S
C75   C73    1.52458       .     S
C73   N79    1.30209       .     S
N79   C73    1.30209       .     S
C75   H76    0.98005       .     S
H76   C75    0.98005       .     S
C75   H77    0.98081       .     S
H77   C75    0.98081       .     S
C75   H78    0.98014       .     S
H78   C75    0.98014       .     S
N79   C80    1.59407       .     S
C80   N79    1.59407       .     S
N79   C83    1.46683       .     S
C83   N79    1.46683       .     S
C80   H81    0.98053       .     S
H81   C80    0.98053       .     S
C80   H82    0.97960       .     S
H82   C80    0.97960       .     S
C80   C83    0.64490       .     S
C83   C80    0.64490       .     S
C80   H84    0.49095       .     S
H84   C80    0.49095       .     S
C80   H85    1.28588       .     S
H85   C80    1.28588       .     S
H81   C83    1.05751       .     S
C83   H81    1.05751       .     S
H82   C83    0.98912       .     S
C83   H82    0.98912       .     S
C83   H84    0.97941       .     S
H84   C83    0.97941       .     S
C83   H85    0.97931       .     S
H85   C83    0.97931       .     S
C83   H86    0.98066       .     S
H86   C83    0.98066       .     S
O87   C88    0.90552       .     S
C88   O87    0.90552       .     S
O87   H89    0.87294       .     S
H89   O87    0.87294       .     S
O87   H90    1.16629       .     S
H90   O87    1.16629       .     S
O87   C91    1.41835       .     S
C91   O87    1.41835       .     S
C88   H89    0.97928       .     S
H89   C88    0.97928       .     S
C88   H90    0.98044       .     S
H90   C88    0.98044       .     S
C88   C91    1.17130       .     S
C91   C88    1.17130       .     S
C88   H92    0.98105       .     S
H92   C88    0.98105       .     S
C91   H92    0.42228       .     S
H92   C91    0.42228       .     S
C91   C93    1.47982       .     S
C93   C91    1.47982       .     S
C91   N97    1.17273       .     S
N97   C91    1.17273       .     S
H92   N97    1.01286       .     S
N97   H92    1.01286       .     S
C93   H94    0.98037       .     S
H94   C93    0.98037       .     S
C93   H95    0.97896       .     S
H95   C93    0.97896       .     S
C93   H96    0.97973       .     S
H96   C93    0.97973       .     S
C99   H100   0.98078       .     S
H100  C99    0.98078       .     S
C99   H101   0.98002       .     S
H101  C99    0.98002       .     S
C99   H102   0.98093       .     S
H102  C99    0.98093       .     S
O105  H106   0.83996       .     S
H106  O105   0.83996       .     S
O105  H107   0.83993       .     S
H107  O105   0.83993       .     S
O105  Si111  1.59649       .     S
Si111 O105   1.59649       .     S
Si108 O116   1.60637       .     S
O116  Si108  1.60637       .     S
Si108 O117   1.61228       .     S
O117  Si108  1.61228       .     S
Si108 O119   1.60614       .     S
O119  Si108  1.60614       .     S
Si108 O124   1.60950       .     S
O124  Si108  1.60950       .     S
Si109 O116   1.62102       .     S
O116  Si109  1.62102       .     S
Si109 O125   1.59095       .     S
O125  Si109  1.59095       .     S
Si109 O127   1.61375       .     S
O127  Si109  1.61375       .     S
Si109 O128   1.61011       .     S
O128  Si109  1.61011       .     S
Si110 O120   1.61184       .     S
O120  Si110  1.61184       .     S
Si110 O121   1.59594       .     S
O121  Si110  1.59594       .     S
Si110 O123   1.60720       .     S
O123  Si110  1.60720       .     S
Si110 O128   1.60902       .     S
O128  Si110  1.60902       .     S
Si111 O119   1.60209       .     S
O119  Si111  1.60209       .     S
Si111 O120   1.60871       .     S
O120  Si111  1.60871       .     S
Si111 O138   1.60491       .     S
O138  Si111  1.60491       .     S
Si112 O123   1.61240       .     S
O123  Si112  1.61240       .     S
Si112 O130   1.59772       .     S
O130  Si112  1.59772       .     S
Si112 O134   1.61142       .     S
O134  Si112  1.61142       .     S
Si112 O137   1.61018       .     S
O137  Si112  1.61018       .     S
Si113 O124   1.60806       .     S
O124  Si113  1.60806       .     S
Si113 O129   1.60968       .     S
O129  Si113  1.60968       .     S
Si113 O139   1.60299       .     S
O139  Si113  1.60299       .     S
Si113 O140   1.59594       .     S
O140  Si113  1.59594       .     S
Si114 O127   1.61084       .     S
O127  Si114  1.61084       .     S
Si114 O129   1.61311       .     S
O129  Si114  1.61311       .     S
Si114 O132   1.60143       .     S
O132  Si114  1.60143       .     S
Si114 O134   1.60828       .     S
O134  Si114  1.60828       .     S
Si115 O135   1.59318       .     S
O135  Si115  1.59318       .     S
Si115 O137   1.60819       .     S
O137  Si115  1.60819       .     S
Si115 O138   1.61892       .     S
O138  Si115  1.61892       .     S
Si115 O139   1.60924       .     S
O139  Si115  1.60924       .     S
O117  H118   0.83997       .     S
H118  O117   0.83997       .     S
O121  H122   0.84000       .     S
H122  O121   0.84000       .     S
O125  H126   0.84006       .     S
H126  O125   0.84006       .     S
O130  H131   0.83995       .     S
H131  O130   0.83995       .     S
O132  H133   0.84012       .     S
H133  O132   0.84012       .     S
O135  H136   0.84010       .     S
H136  O135   0.84010       .     S
O140  H141   0.84007       .     S
H141  O140   0.84007       .     S
O142  C144   1.24634       .     S
C144  O142   1.24634       .     S
N143  C144   1.33877       .     S
C144  N143   1.33877       .     S
N143  C149   1.45644       .     S
C149  N143   1.45644       .     S
N143  C153   1.45500       .     S
C153  N143   1.45500       .     S
C144  C145   1.50020       .     S
C145  C144   1.50020       .     S
C145  H146   0.98001       .     S
H146  C145   0.98001       .     S
C145  H147   0.98003       .     S
H147  C145   0.98003       .     S
C145  H148   0.97992       .     S
H148  C145   0.97992       .     S
C149  H150   0.98018       .     S
H150  C149   0.98018       .     S
C149  H151   0.97993       .     S
H151  C149   0.97993       .     S
C149  H152   0.97994       .     S
H152  C149   0.97994       .     S
C153  H154   0.97917       .     S
H154  C153   0.97917       .     S
C153  H155   0.98021       .     S
H155  C153   0.98021       .     S
C153  H156   0.98094       .     S
H156  C153   0.98094       .     S
O87   H107   2.00109       .     S
H107  O87    2.00109       .     S
O49   H122   1.80212       .     S
H122  O49    1.80212       .     S
O54   H122   1.83446       .     S
H122  O54    1.83446       .     S
C2    O0     1.24252       .     S
O0    C2     1.24252       .     S
C2    N1     1.33214   1_655     S
N1    C2     1.33214   1_455     S
C7    N1     1.45829   1_655     S
N1    C7     1.45829   1_455     S
C11   N1     1.46146       .     S
N1    C11    1.46146       .     S
C3    C2     1.51105       .     S
C2    C3     1.51105       .     S
H4    C3     0.98002   1_455     S
C3    H4     0.98002   1_655     S
H5    C3     0.98004   1_455     S
C3    H5     0.98004   1_655     S
H6    C3     0.98005       .     S
C3    H6     0.98005       .     S
H8    C7     0.98007   1_455     S
C7    H8     0.98007   1_655     S
H9    C7     0.98025   1_455     S
C7    H9     0.98025   1_655     S
H10   C7     0.98003       .     S
C7    H10    0.98003       .     S
H12   C11    0.97931       .     S
C11   H12    0.97931       .     S
H13   C11    0.98058       .     S
C11   H13    0.98058       .     S
H14   C11    0.97978       .     S
C11   H14    0.97978       .     S
C17   O15    1.22604       .     S
O15   C17    1.22604       .     S
C17   N16    1.31491       .     S
N16   C17    1.31491       .     S
C18   N16    1.46550       .     S
N16   C18    1.46550       .     S
C22   N16    1.45885       .     S
N16   C22    1.45885       .     S
C26   C17    1.54975       .     S
C17   C26    1.54975       .     S
H19   C18    0.97946       .     S
C18   H19    0.97946       .     S
H20   C18    0.98037       .     S
C18   H20    0.98037       .     S
H21   C18    0.98024       .     S
C18   H21    0.98024       .     S
H23   C22    0.97982       .     S
C22   H23    0.97982       .     S
H24   C22    0.97992       .     S
C22   H24    0.97992       .     S
H25   C22    0.98022       .     S
C22   H25    0.98022       .     S
H27   C26    0.97961       .     S
C26   H27    0.97961       .     S
H28   C26    0.97928       .     S
C26   H28    0.97928       .     S
H29   C26    0.98012       .     S
C26   H29    0.98012       .     S
C32   O30    1.25652       .     S
O30   C32    1.25652       .     S
C32   N31    1.32700       .     S
N31   C32    1.32700       .     S
C37   N31    1.46175       .     S
N31   C37    1.46175       .     S
C41   N31    1.46170       .     S
N31   C41    1.46170       .     S
C33   C32    1.49943       .     S
C32   C33    1.49943       .     S
H34   C33    0.97994       .     S
C33   H34    0.97994       .     S
H35   C33    0.98080       .     S
C33   H35    0.98080       .     S
H36   C33    0.97993       .     S
C33   H36    0.97993       .     S
H38   C37    0.98031       .     S
C37   H38    0.98031       .     S
H39   C37    0.98043       .     S
C37   H39    0.98043       .     S
H40   C37    0.97964       .     S
C37   H40    0.97964       .     S
H42   C41    0.97992       .     S
C41   H42    0.97992       .     S
H43   C41    0.97958       .     S
C41   H43    0.97958       .     S
H44   C41    0.98004       .     S
C41   H44    0.98004       .     S
H46   C45    0.97966       .     S
C45   H46    0.97966       .     S
C47   C45    0.75163       .     S
C45   C47    0.75163       .     S
H48   C45    0.67328       .     S
C45   H48    0.67328       .     S
H52   C45    0.98118       .     S
C45   H52    0.98118       .     S
N55   C45    1.40325       .     S
C45   N55    1.40325       .     S
N97   C45    1.46783       .     S
C45   N97    1.46783       .     S
H98   C45    0.98006       .     S
C45   H98    0.98006       .     S
C47   H46    0.41118       .     S
H46   C47    0.41118       .     S
H104  H46    0.56944       .     S
H46   H104   0.56944       .     S
H48   C47    0.97960       .     S
C47   H48    0.97960       .     S
N55   C47    1.47919       .     S
C47   N55    1.47919       .     S
N97   C47    1.61260       .     S
C47   N97    1.61260       .     S
H103  C47    0.98075       .     S
C47   H103   0.98075       .     S
H104  C47    0.97926       .     S
C47   H104   0.97926       .     S
N97   H48    1.42791       .     S
H48   N97    1.42791       .     S
C51   O49    1.24761       .     S
O49   C51    1.24761       .     S
O54   O49    0.67704       .     S
O49   O54    0.67704       .     S
C51   N50    1.29683       .     S
N50   C51    1.29683       .     S
C56   N50    1.48450       .     S
N50   C56    1.48450       .     S
H59   N50    1.21281       .     S
N50   H59    1.21281       .     S
C64   N50    1.47067       .     S
N50   C64    1.47067       .     S
C80   C51    1.54641       .     S
C51   C80    1.54641       .     S
N55   H52    0.96858       .     S
H52   N55    0.96858       .     S
O54   C53    1.28292       .     S
C53   O54    1.28292       .     S
N55   C53    1.27531       .     S
C53   N55    1.27531       .     S
C88   C53    1.52902       .     S
C53   C88    1.52902       .     S
C61   N55    1.52172       .     S
N55   C61    1.52172       .     S
H57   C56    0.98058       .     S
C56   H57    0.98058       .     S
H58   C56    0.97986       .     S
C56   H58    0.97986       .     S
H59   C56    0.83142       .     S
C56   H59    0.83142       .     S
H60   C56    0.97973       .     S
C56   H60    0.97973       .     S
C61   C56    1.06541       .     S
C56   C61    1.06541       .     S
H63   C56    1.28840       .     S
C56   H63    1.28840       .     S
C61   H57    1.25615       .     S
H57   C61    1.25615       .     S
C61   H59    0.98075       .     S
H59   C61    0.98075       .     S
C61   H60    0.88522       .     S
H60   C61    0.88522       .     S
H62   C61    0.98065       .     S
C61   H62    0.98065       .     S
H63   C61    0.97991       .     S
C61   H63    0.97991       .     S
H65   C64    0.98056       .     S
C64   H65    0.98056       .     S
H66   C64    0.98087       .     S
C64   H66    0.98087       .     S
H67   C64    0.97956       .     S
C64   H67    0.97956       .     S
H68   C64    0.58629       .     S
C64   H68    0.58629       .     S
C69   C64    1.55275       .     S
C64   C69    1.55275       .     S
C69   H65    1.11871       .     S
H65   C69    1.11871       .     S
C69   H68    0.97912       .     S
H68   C69    0.97912       .     S
H70   C69    0.97934       .     S
C69   H70    0.97934       .     S
H71   C69    0.98069       .     S
C69   H71    0.98069       .     S
N79   C69    1.48835       .     S
C69   N79    1.48835       .     S
N79   H72    0.66871       .     S
H72   N79    0.66871       .     S
C80   H72    0.98121       .     S
H72   C80    0.98121       .     S
C83   H72    0.88468       .     S
H72   C83    0.88468       .     S
O74   C73    1.26287       .     S
C73   O74    1.26287       .     S
C75   C73    1.52458       .     S
C73   C75    1.52458       .     S
N79   C73    1.30209       .     S
C73   N79    1.30209       .     S
H76   C75    0.98005       .     S
C75   H76    0.98005       .     S
H77   C75    0.98081       .     S
C75   H77    0.98081       .     S
H78   C75    0.98014       .     S
C75   H78    0.98014       .     S
C80   N79    1.59407       .     S
N79   C80    1.59407       .     S
C83   N79    1.46683       .     S
N79   C83    1.46683       .     S
H81   C80    0.98053       .     S
C80   H81    0.98053       .     S
H82   C80    0.97960       .     S
C80   H82    0.97960       .     S
C83   C80    0.64490       .     S
C80   C83    0.64490       .     S
H84   C80    0.49095       .     S
C80   H84    0.49095       .     S
H85   C80    1.28588       .     S
C80   H85    1.28588       .     S
C83   H81    1.05751       .     S
H81   C83    1.05751       .     S
C83   H82    0.98912       .     S
H82   C83    0.98912       .     S
H84   C83    0.97941       .     S
C83   H84    0.97941       .     S
H85   C83    0.97931       .     S
C83   H85    0.97931       .     S
H86   C83    0.98066       .     S
C83   H86    0.98066       .     S
C88   O87    0.90552       .     S
O87   C88    0.90552       .     S
H89   O87    0.87294       .     S
O87   H89    0.87294       .     S
H90   O87    1.16629       .     S
O87   H90    1.16629       .     S
C91   O87    1.41835       .     S
O87   C91    1.41835       .     S
H89   C88    0.97928       .     S
C88   H89    0.97928       .     S
H90   C88    0.98044       .     S
C88   H90    0.98044       .     S
C91   C88    1.17130       .     S
C88   C91    1.17130       .     S
H92   C88    0.98105       .     S
C88   H92    0.98105       .     S
H92   C91    0.42228       .     S
C91   H92    0.42228       .     S
C93   C91    1.47982       .     S
C91   C93    1.47982       .     S
N97   C91    1.17273       .     S
C91   N97    1.17273       .     S
N97   H92    1.01286       .     S
H92   N97    1.01286       .     S
H94   C93    0.98037       .     S
C93   H94    0.98037       .     S
H95   C93    0.97896       .     S
C93   H95    0.97896       .     S
H96   C93    0.97973       .     S
C93   H96    0.97973       .     S
H100  C99    0.98078       .     S
C99   H100   0.98078       .     S
H101  C99    0.98002       .     S
C99   H101   0.98002       .     S
H102  C99    0.98093       .     S
C99   H102   0.98093       .     S
H106  O105   0.83996       .     S
O105  H106   0.83996       .     S
H107  O105   0.83993       .     S
O105  H107   0.83993       .     S
Si111 O105   1.59649       .     S
O105  Si111  1.59649       .     S
O116  Si108  1.60637       .     S
Si108 O116   1.60637       .     S
O117  Si108  1.61228       .     S
Si108 O117   1.61228       .     S
O119  Si108  1.60614       .     S
Si108 O119   1.60614       .     S
O124  Si108  1.60950       .     S
Si108 O124   1.60950       .     S
O116  Si109  1.62102       .     S
Si109 O116   1.62102       .     S
O125  Si109  1.59095       .     S
Si109 O125   1.59095       .     S
O127  Si109  1.61375       .     S
Si109 O127   1.61375       .     S
O128  Si109  1.61011       .     S
Si109 O128   1.61011       .     S
O120  Si110  1.61184       .     S
Si110 O120   1.61184       .     S
O121  Si110  1.59594       .     S
Si110 O121   1.59594       .     S
O123  Si110  1.60720       .     S
Si110 O123   1.60720       .     S
O128  Si110  1.60902       .     S
Si110 O128   1.60902       .     S
O119  Si111  1.60209       .     S
Si111 O119   1.60209       .     S
O120  Si111  1.60871       .     S
Si111 O120   1.60871       .     S
O138  Si111  1.60491       .     S
Si111 O138   1.60491       .     S
O123  Si112  1.61240       .     S
Si112 O123   1.61240       .     S
O130  Si112  1.59772       .     S
Si112 O130   1.59772       .     S
O134  Si112  1.61142       .     S
Si112 O134   1.61142       .     S
O137  Si112  1.61018       .     S
Si112 O137   1.61018       .     S
O124  Si113  1.60806       .     S
Si113 O124   1.60806       .     S
O129  Si113  1.60968       .     S
Si113 O129   1.60968       .     S
O139  Si113  1.60299       .     S
Si113 O139   1.60299       .     S
O140  Si113  1.59594       .     S
Si113 O140   1.59594       .     S
O127  Si114  1.61084       .     S
Si114 O127   1.61084       .     S
O129  Si114  1.61311       .     S
Si114 O129   1.61311       .     S
O132  Si114  1.60143       .     S
Si114 O132   1.60143       .     S
O134  Si114  1.60828       .     S
Si114 O134   1.60828       .     S
O135  Si115  1.59318       .     S
Si115 O135   1.59318       .     S
O137  Si115  1.60819       .     S
Si115 O137   1.60819       .     S
O138  Si115  1.61892       .     S
Si115 O138   1.61892       .     S
O139  Si115  1.60924       .     S
Si115 O139   1.60924       .     S
H118  O117   0.83997       .     S
O117  H118   0.83997       .     S
H122  O121   0.84000       .     S
O121  H122   0.84000       .     S
H126  O125   0.84006       .     S
O125  H126   0.84006       .     S
H131  O130   0.83995       .     S
O130  H131   0.83995       .     S
H133  O132   0.84012       .     S
O132  H133   0.84012       .     S
H136  O135   0.84010       .     S
O135  H136   0.84010       .     S
H141  O140   0.84007       .     S
O140  H141   0.84007       .     S
C144  O142   1.24634       .     S
O142  C144   1.24634       .     S
C144  N143   1.33877       .     S
N143  C144   1.33877       .     S
C149  N143   1.45644       .     S
N143  C149   1.45644       .     S
C153  N143   1.45500       .     S
N143  C153   1.45500       .     S
C145  C144   1.50020       .     S
C144  C145   1.50020       .     S
H146  C145   0.98001       .     S
C145  H146   0.98001       .     S
H147  C145   0.98003       .     S
C145  H147   0.98003       .     S
H148  C145   0.97992       .     S
C145  H148   0.97992       .     S
H150  C149   0.98018       .     S
C149  H150   0.98018       .     S
H151  C149   0.97993       .     S
C149  H151   0.97993       .     S
H152  C149   0.97994       .     S
C149  H152   0.97994       .     S
H154  C153   0.97917       .     S
C153  H154   0.97917       .     S
H155  C153   0.98021       .     S
C153  H155   0.98021       .     S
H156  C153   0.98094       .     S
C153  H156   0.98094       .     S
