data_I
_chemical_name_common  '/data/user2/wty/HOF/MOFDiff/mofdiff/data/test/187_2d-s'
_cell_length_a 11.25510
_cell_length_b  7.54870
_cell_length_c 16.94430
_cell_angle_alpha 90.00000
_cell_angle_beta  99.62000
_cell_angle_gamma 90.00000
_space_group_name_H-M_alt      'P 1'


loop_
_space_group_symop_operation_xyz
  'x, y, z' 

loop_
_atom_site_label
_atom_site_fract_x
_atom_site_fract_y
_atom_site_fract_z
_atom_site_type_symbol
Si0      0.594  0.30071  0.62423    Si
Si1    0.39866  0.28939  0.38048    Si
Si2    0.66683  0.27939  0.45571    Si
Si3    0.32633  0.30802  0.54862    Si
O4      0.3351   0.1642  0.30837     O
H5     0.27839  0.21962  0.28047     H
O6      0.6578   0.1919    0.702     O
H7     0.65547  0.08297  0.69165     H
O8      0.5404    0.247  0.39616     O
O9      0.4504   0.2736  0.61005     O
O10     0.3437   0.2468  0.46013     O
O11     0.3731   0.4947  0.35584     O
O12     0.6457   0.2378  0.54604     O
O13     0.2936   0.5157  0.54889     O
O14     0.2199   0.1897  0.57358     O
H15    0.18065  0.25041  0.60187     H
O16     0.7737   0.1662   0.4309     O
H17    0.77526  0.06565  0.45231     H
O18     0.5638   0.2015  0.16163     O
C19      0.561   0.0092   0.1669     C
H20    0.56378  0.95586  0.11387     H
H21    0.48605  0.97002  0.18501     H
C22     0.4519   0.4692   0.1305     C
H23     0.5128  0.52232  0.10265     H
H24    0.47007  0.49913  0.18752     H
H25    0.37215  0.51525  0.10769     H
C26     0.6701   0.9523   0.2266     C
H27    0.74323  0.00082  0.21058     H
H28    0.67489  0.82269   0.2279     H
H29    0.66259  0.99665  0.27991     H
C30     0.4532   0.2702   0.1207     C
H31    0.38516  0.21719  0.14265     H
H32     0.4436  0.23968  0.06312     H
loop_
_geom_bond_atom_site_label_1
_geom_bond_atom_site_label_2
_geom_bond_distance
_geom_bond_site_symmetry_2
_ccdc_geom_bond_type
Si0   O6     1.61571       .     S
O6    Si0    1.61571       .     S
Si0   O9     1.60687       .     S
O9    Si0    1.60687       .     S
Si0   O12    1.60533       .     S
O12   Si0    1.60533       .     S
Si1   O4     1.61419       .     S
O4    Si1    1.61419       .     S
Si1   O8     1.60509       .     S
O8    Si1    1.60509       .     S
Si1   O10    1.60826       .     S
O10   Si1    1.60826       .     S
Si1   O11    1.61830       .     S
O11   Si1    1.61830       .     S
Si2   O8     1.61954       .     S
O8    Si2    1.61954       .     S
Si2   O12    1.61847       .     S
O12   Si2    1.61847       .     S
Si2   O16    1.58827       .     S
O16   Si2    1.58827       .     S
Si3   O9     1.61714       .     S
O9    Si3    1.61714       .     S
Si3   O10    1.61182       .     S
O10   Si3    1.61182       .     S
Si3   O13    1.61059       .     S
O13   Si3    1.61059       .     S
Si3   O14    1.60650       .     S
O14   Si3    1.60650       .     S
O4    H5     0.83967       .     S
H5    O4     0.83967       .     S
O6    H7     0.84027       .     S
H7    O6     0.84027       .     S
O14   H15    0.84008       .     S
H15   O14    0.84008       .     S
O16   H17    0.84018       .     S
H17   O16    0.84018       .     S
O18   C19    1.45502       .     S
C19   O18    1.45502       .     S
O18   C30    1.41808       .     S
C30   O18    1.41808       .     S
C19   H20    0.98990   1_545     S
H20   C19    0.98990   1_565     S
C19   H21    0.98983   1_545     S
H21   C19    0.98983   1_565     S
C19   C26    1.51672   1_545     S
C26   C19    1.51672   1_565     S
C22   H23    0.98051       .     S
H23   C22    0.98051       .     S
C22   H24    0.97995       .     S
H24   C22    0.97995       .     S
C22   H25    0.97977       .     S
H25   C22    0.97977       .     S
C22   C30    1.51168       .     S
C30   C22    1.51168       .     S
C26   H27    0.97978   1_565     S
H27   C26    0.97978   1_545     S
C26   H28    0.97992       .     S
H28   C26    0.97992       .     S
C26   H29    0.98015       .     S
H29   C26    0.98015       .     S
C30   H31    0.99000       .     S
H31   C30    0.99000       .     S
C30   H32    0.99067       .     S
H32   C30    0.99067       .     S
O6    Si0    1.61571       .     S
Si0   O6     1.61571       .     S
O9    Si0    1.60687       .     S
Si0   O9     1.60687       .     S
O12   Si0    1.60533       .     S
Si0   O12    1.60533       .     S
O4    Si1    1.61419       .     S
Si1   O4     1.61419       .     S
O8    Si1    1.60509       .     S
Si1   O8     1.60509       .     S
O10   Si1    1.60826       .     S
Si1   O10    1.60826       .     S
O11   Si1    1.61830       .     S
Si1   O11    1.61830       .     S
O8    Si2    1.61954       .     S
Si2   O8     1.61954       .     S
O12   Si2    1.61847       .     S
Si2   O12    1.61847       .     S
O16   Si2    1.58827       .     S
Si2   O16    1.58827       .     S
O9    Si3    1.61714       .     S
Si3   O9     1.61714       .     S
O10   Si3    1.61182       .     S
Si3   O10    1.61182       .     S
O13   Si3    1.61059       .     S
Si3   O13    1.61059       .     S
O14   Si3    1.60650       .     S
Si3   O14    1.60650       .     S
H5    O4     0.83967       .     S
O4    H5     0.83967       .     S
H7    O6     0.84027       .     S
O6    H7     0.84027       .     S
H15   O14    0.84008       .     S
O14   H15    0.84008       .     S
H17   O16    0.84018       .     S
O16   H17    0.84018       .     S
C19   O18    1.45502       .     S
O18   C19    1.45502       .     S
C30   O18    1.41808       .     S
O18   C30    1.41808       .     S
H20   C19    0.98990   1_565     S
C19   H20    0.98990   1_545     S
H21   C19    0.98983   1_565     S
C19   H21    0.98983   1_545     S
C26   C19    1.51672   1_565     S
C19   C26    1.51672   1_545     S
H23   C22    0.98051       .     S
C22   H23    0.98051       .     S
H24   C22    0.97995       .     S
C22   H24    0.97995       .     S
H25   C22    0.97977       .     S
C22   H25    0.97977       .     S
C30   C22    1.51168       .     S
C22   C30    1.51168       .     S
H27   C26    0.97978   1_545     S
C26   H27    0.97978   1_565     S
H28   C26    0.97992       .     S
C26   H28    0.97992       .     S
H29   C26    0.98015       .     S
C26   H29    0.98015       .     S
H31   C30    0.99000       .     S
C30   H31    0.99000       .     S
H32   C30    0.99067       .     S
C30   H32    0.99067       .     S
