data_I
_chemical_name_common  '/data/user2/wty/HOF/MOFDiff/mofdiff/data/test/187_1d-r'
_cell_length_a 24.69100
_cell_length_b  7.54530
_cell_length_c 24.95400
_cell_angle_alpha 90.00000
_cell_angle_beta  92.49200
_cell_angle_gamma 90.00000
_space_group_name_H-M_alt      'P 1'


loop_
_space_group_symop_operation_xyz
  'x, y, z' 

loop_
_atom_site_label
_atom_site_fract_x
_atom_site_fract_y
_atom_site_fract_z
_atom_site_type_symbol
Si0    0.66772  0.46166   0.5258    Si
Si1    0.77911  0.44183  0.58685    Si
Si2    0.77572  0.02801  0.58227    Si
Si3    0.66373  0.04802  0.52086    Si
O4     0.71821   0.4974  0.56768     O
O5     0.65091   0.2557   0.5284     O
O6     0.61686   0.5846  0.53986     O
H7     0.59945  0.53609  0.56404     H
O8     0.78183   0.2331   0.5998     O
O9     0.81992   0.4873  0.54021     O
O10    0.79469   0.5578  0.63964     O
H11    0.82052  0.50915  0.65702     H
O12    0.71426   0.9912  0.56059     O
O13    0.81548   0.9864  0.53395     O
O14    0.79154   0.9156  0.63505     O
H15    0.78994  0.80697  0.62784     H
O16    0.60991   0.9419  0.53429     O
H17    0.61576  0.83243  0.53232     H
O18    0.87243    0.454  0.70601     O
N19    0.83697   0.3222  0.77882     N
N20    0.88347   0.5885  0.78689     N
C21    0.86431   0.4542  0.75521     C
C22     0.8089   0.1915  0.74433     C
H23    0.79369  0.25027  0.71206     H
H24    0.77964  0.13671  0.76381     H
H25    0.83465      0.1  0.73404     H
C26    0.84642   0.2646  0.83419     C
H27    0.85979  0.14228  0.83471     H
H28    0.81241  0.27072  0.85294     H
H29    0.87341  0.34202  0.85215     H
C30     0.8505   0.6642   0.8289     C
H31     0.8374  0.78163  0.81766     H
H32    0.87261  0.67497  0.86231     H
H33     0.8195  0.58649  0.83472     H
C34     0.9203   0.7137  0.76243     C
H35    0.94563  0.64876  0.74046     H
H36    0.94072  0.77888  0.79066     H
H37    0.89935  0.79735  0.73979     H
H38    0.43385  0.78514  0.58323     H
C39     0.4259   0.6743   0.6018     C
H40    0.39711  0.69463  0.62687     H
C41      0.419    0.642   0.6257     C
H42    0.38954  0.59143  0.64581     H
H43    0.41364  0.61203  0.58763     H
O44    0.55357    0.485  0.61464     O
N45     0.4751   0.6123   0.6316     N
N46     0.4766   0.3372  0.58882     N
C47    0.50323    0.474  0.61298     C
C48    0.42548   0.2654  0.60617     C
H49     0.4313  0.14487   0.6199     H
H50    0.39907  0.26251   0.5757     H
H51    0.41166  0.34038  0.63458     H
N52     0.4698    0.573   0.6458     N
C53     0.5085   0.1931   0.5671     C
H54    0.53701  0.24252  0.54536     H
H55    0.48486  0.11646  0.54463     H
H56     0.5251  0.12352  0.59661     H
C57     0.5061    0.257    0.541     C
H58    0.52375  0.35174  0.52143     H
H59    0.47971  0.19625  0.51696     H
H60    0.53343  0.17187  0.55446     H
C61     0.5046   0.7519   0.6602     C
H62    0.53188  0.69913  0.68505     H
H63    0.47926  0.82296  0.68046     H
H64    0.52249  0.82784  0.63452     H
C65     0.4998    0.686   0.6848     C
H66    0.53007  0.61948  0.70153     H
H67    0.47547  0.72524  0.71249     H
H68    0.51385  0.79016  0.66631     H
H69    0.41899  0.77156  0.62979     H
H70    0.41414  0.58437  0.57547     H
loop_
_geom_bond_atom_site_label_1
_geom_bond_atom_site_label_2
_geom_bond_distance
_geom_bond_site_symmetry_2
_ccdc_geom_bond_type
H7    O44    1.77500       .     S
O44   H7     1.77500       .     S
H11   O18    1.78163       .     S
O18   H11    1.78163       .     S
H15   O10    1.90580       .     S
O10   H15    1.90580       .     S
H17   O6     1.87947       .     S
O6    H17    1.87947       .     S
Si0   O4     1.61423       .     S
O4    Si0    1.61423       .     S
Si0   O5     1.61054       .     S
O5    Si0    1.61054       .     S
Si0   O6     1.61211       .     S
O6    Si0    1.61211       .     S
Si1   O4     1.61343       .     S
O4    Si1    1.61343       .     S
Si1   O8     1.60856       .     S
O8    Si1    1.60856       .     S
Si1   O9     1.60922       .     S
O9    Si1    1.60922       .     S
Si1   O10    1.61398       .     S
O10   Si1    1.61398       .     S
Si2   O8     1.61339       .     S
O8    Si2    1.61339       .     S
Si2   O12    1.61284   1_545     S
O12   Si2    1.61284   1_565     S
Si2   O13    1.61839   1_545     S
O13   Si2    1.61839   1_565     S
Si2   O14    1.60060   1_545     S
O14   Si2    1.60060   1_565     S
Si3   O5     1.61130       .     S
O5    Si3    1.61130       .     S
Si3   O12    1.61733   1_545     S
O12   Si3    1.61733   1_565     S
Si3   O16    1.59940   1_545     S
O16   Si3    1.59940   1_565     S
O6    H7     0.83988       .     S
H7    O6     0.83988       .     S
O10   H11    0.83996       .     S
H11   O10    0.83996       .     S
O14   H15    0.83972       .     S
H15   O14    0.83972       .     S
O16   H17    0.84033       .     S
H17   O16    0.84033       .     S
O18   C21    1.25257       .     S
C21   O18    1.25257       .     S
N19   C21    1.35254       .     S
C21   N19    1.35254       .     S
N19   C22    1.46347       .     S
C22   N19    1.46347       .     S
N19   C26    1.45753       .     S
C26   N19    1.45753       .     S
N20   C21    1.35760       .     S
C21   N20    1.35760       .     S
N20   C30    1.47042       .     S
C30   N20    1.47042       .     S
N20   C34    1.46294       .     S
C34   N20    1.46294       .     S
C22   H23    0.97971       .     S
H23   C22    0.97971       .     S
C22   H24    0.97964       .     S
H24   C22    0.97964       .     S
C22   H25    0.98031       .     S
H25   C22    0.98031       .     S
C26   H27    0.98010       .     S
H27   C26    0.98010       .     S
C26   H28    0.97999       .     S
H28   C26    0.97999       .     S
C26   H29    0.97991       .     S
H29   C26    0.97991       .     S
C30   H31    0.98004       .     S
H31   C30    0.98004       .     S
C30   H32    0.97986       .     S
H32   C30    0.97986       .     S
C30   H33    0.98001       .     S
H33   C30    0.98001       .     S
C34   H35    0.98063       .     S
H35   C34    0.98063       .     S
C34   H36    0.98053       .     S
H36   C34    0.98053       .     S
C34   H37    0.97965       .     S
H37   C34    0.97965       .     S
H38   C39    0.98011       .     S
C39   H38    0.98011       .     S
C39   H40    0.97923       .     S
H40   C39    0.97923       .     S
C39   C41    0.67302       .     S
C41   C39    0.67302       .     S
C39   H43    0.65430       .     S
H43   C39    0.65430       .     S
C39   N45    1.47275       .     S
N45   C39    1.47275       .     S
C39   H69    1.03241       .     S
H69   C39    1.03241       .     S
C39   H70    0.97972       .     S
H70   C39    0.97972       .     S
H40   C41    0.67234       .     S
C41   H40    0.67234       .     S
C41   H42    0.97891       .     S
H42   C41    0.97891       .     S
C41   H43    0.97991       .     S
H43   C41    0.97991       .     S
C41   N45    1.40458       .     S
N45   C41    1.40458       .     S
C41   N52    1.42870       .     S
N52   C41    1.42870       .     S
C41   H69    0.98288       .     S
H69   C41    0.98288       .     S
C41   H70    1.32722       .     S
H70   C41    1.32722       .     S
H43   H70    0.36893       .     S
H70   H43    0.36893       .     S
O44   C47    1.24460       .     S
C47   O44    1.24460       .     S
N45   C47    1.34733       .     S
C47   N45    1.34733       .     S
N45   N52    0.48441       .     S
N52   N45    0.48441       .     S
N45   C61    1.45058       .     S
C61   N45    1.45058       .     S
N45   C65    1.54051       .     S
C65   N45    1.54051       .     S
N46   C47    1.35158       .     S
C47   N46    1.35158       .     S
N46   C48    1.45658       .     S
C48   N46    1.45658       .     S
N46   C53    1.46063       .     S
C53   N46    1.46063       .     S
N46   C57    1.54799       .     S
C57   N46    1.54799       .     S
C47   N52    1.40315       .     S
N52   C47    1.40315       .     S
C48   H49    0.98022       .     S
H49   C48    0.98022       .     S
C48   H50    0.98016       .     S
H50   C48    0.98016       .     S
C48   H51    0.97987       .     S
H51   C48    0.97987       .     S
N52   C61    1.63177       .     S
C61   N52    1.63177       .     S
N52   C65    1.46972       .     S
C65   N52    1.46972       .     S
C53   H54    0.98086       .     S
H54   C53    0.98086       .     S
C53   H55    0.98033       .     S
H55   C53    0.98033       .     S
C53   H56    0.97962       .     S
H56   C53    0.97962       .     S
C53   C57    0.81044       .     S
C57   C53    0.81044       .     S
C53   H60    0.72175       .     S
H60   C53    0.72175       .     S
H54   C57    0.77397       .     S
C57   H54    0.77397       .     S
H54   H60    0.58762       .     S
H60   H54    0.58762       .     S
H55   C57    1.18821       .     S
C57   H55    1.18821       .     S
C57   H58    0.97873       .     S
H58   C57    0.97873       .     S
C57   H59    0.98009       .     S
H59   C57    0.98009       .     S
C57   H60    0.98034       .     S
H60   C57    0.98034       .     S
C61   H62    0.98002       .     S
H62   C61    0.98002       .     S
C61   H63    0.98084       .     S
H63   C61    0.98084       .     S
C61   H64    0.97913       .     S
H64   C61    0.97913       .     S
C61   C65    0.80278       .     S
C65   C61    0.80278       .     S
C61   H68    0.39461       .     S
H68   C61    0.39461       .     S
H62   C65    0.79801       .     S
C65   H62    0.79801       .     S
H63   C65    1.15416       .     S
C65   H63    1.15416       .     S
C65   H66    0.97861       .     S
H66   C65    0.97861       .     S
C65   H67    0.98086       .     S
H67   C65    0.98086       .     S
C65   H68    0.98225       .     S
H68   C65    0.98225       .     S
O44   H7     1.77500       .     S
H7    O44    1.77500       .     S
O18   H11    1.78163       .     S
H11   O18    1.78163       .     S
O10   H15    1.90580       .     S
H15   O10    1.90580       .     S
O6    H17    1.87947       .     S
H17   O6     1.87947       .     S
O4    Si0    1.61423       .     S
Si0   O4     1.61423       .     S
O5    Si0    1.61054       .     S
Si0   O5     1.61054       .     S
O6    Si0    1.61211       .     S
Si0   O6     1.61211       .     S
O4    Si1    1.61343       .     S
Si1   O4     1.61343       .     S
O8    Si1    1.60856       .     S
Si1   O8     1.60856       .     S
O9    Si1    1.60922       .     S
Si1   O9     1.60922       .     S
O10   Si1    1.61398       .     S
Si1   O10    1.61398       .     S
O8    Si2    1.61339       .     S
Si2   O8     1.61339       .     S
O12   Si2    1.61284   1_565     S
Si2   O12    1.61284   1_545     S
O13   Si2    1.61839   1_565     S
Si2   O13    1.61839   1_545     S
O14   Si2    1.60060   1_565     S
Si2   O14    1.60060   1_545     S
O5    Si3    1.61130       .     S
Si3   O5     1.61130       .     S
O12   Si3    1.61733   1_565     S
Si3   O12    1.61733   1_545     S
O16   Si3    1.59940   1_565     S
Si3   O16    1.59940   1_545     S
H7    O6     0.83988       .     S
O6    H7     0.83988       .     S
H11   O10    0.83996       .     S
O10   H11    0.83996       .     S
H15   O14    0.83972       .     S
O14   H15    0.83972       .     S
H17   O16    0.84033       .     S
O16   H17    0.84033       .     S
C21   O18    1.25257       .     S
O18   C21    1.25257       .     S
C21   N19    1.35254       .     S
N19   C21    1.35254       .     S
C22   N19    1.46347       .     S
N19   C22    1.46347       .     S
C26   N19    1.45753       .     S
N19   C26    1.45753       .     S
C21   N20    1.35760       .     S
N20   C21    1.35760       .     S
C30   N20    1.47042       .     S
N20   C30    1.47042       .     S
C34   N20    1.46294       .     S
N20   C34    1.46294       .     S
H23   C22    0.97971       .     S
C22   H23    0.97971       .     S
H24   C22    0.97964       .     S
C22   H24    0.97964       .     S
H25   C22    0.98031       .     S
C22   H25    0.98031       .     S
H27   C26    0.98010       .     S
C26   H27    0.98010       .     S
H28   C26    0.97999       .     S
C26   H28    0.97999       .     S
H29   C26    0.97991       .     S
C26   H29    0.97991       .     S
H31   C30    0.98004       .     S
C30   H31    0.98004       .     S
H32   C30    0.97986       .     S
C30   H32    0.97986       .     S
H33   C30    0.98001       .     S
C30   H33    0.98001       .     S
H35   C34    0.98063       .     S
C34   H35    0.98063       .     S
H36   C34    0.98053       .     S
C34   H36    0.98053       .     S
H37   C34    0.97965       .     S
C34   H37    0.97965       .     S
C39   H38    0.98011       .     S
H38   C39    0.98011       .     S
H40   C39    0.97923       .     S
C39   H40    0.97923       .     S
C41   C39    0.67302       .     S
C39   C41    0.67302       .     S
H43   C39    0.65430       .     S
C39   H43    0.65430       .     S
N45   C39    1.47275       .     S
C39   N45    1.47275       .     S
H69   C39    1.03241       .     S
C39   H69    1.03241       .     S
H70   C39    0.97972       .     S
C39   H70    0.97972       .     S
C41   H40    0.67234       .     S
H40   C41    0.67234       .     S
H42   C41    0.97891       .     S
C41   H42    0.97891       .     S
H43   C41    0.97991       .     S
C41   H43    0.97991       .     S
N45   C41    1.40458       .     S
C41   N45    1.40458       .     S
N52   C41    1.42870       .     S
C41   N52    1.42870       .     S
H69   C41    0.98288       .     S
C41   H69    0.98288       .     S
H70   C41    1.32722       .     S
C41   H70    1.32722       .     S
H70   H43    0.36893       .     S
H43   H70    0.36893       .     S
C47   O44    1.24460       .     S
O44   C47    1.24460       .     S
C47   N45    1.34733       .     S
N45   C47    1.34733       .     S
N52   N45    0.48441       .     S
N45   N52    0.48441       .     S
C61   N45    1.45058       .     S
N45   C61    1.45058       .     S
C65   N45    1.54051       .     S
N45   C65    1.54051       .     S
C47   N46    1.35158       .     S
N46   C47    1.35158       .     S
C48   N46    1.45658       .     S
N46   C48    1.45658       .     S
C53   N46    1.46063       .     S
N46   C53    1.46063       .     S
C57   N46    1.54799       .     S
N46   C57    1.54799       .     S
N52   C47    1.40315       .     S
C47   N52    1.40315       .     S
H49   C48    0.98022       .     S
C48   H49    0.98022       .     S
H50   C48    0.98016       .     S
C48   H50    0.98016       .     S
H51   C48    0.97987       .     S
C48   H51    0.97987       .     S
C61   N52    1.63177       .     S
N52   C61    1.63177       .     S
C65   N52    1.46972       .     S
N52   C65    1.46972       .     S
H54   C53    0.98086       .     S
C53   H54    0.98086       .     S
H55   C53    0.98033       .     S
C53   H55    0.98033       .     S
H56   C53    0.97962       .     S
C53   H56    0.97962       .     S
C57   C53    0.81044       .     S
C53   C57    0.81044       .     S
H60   C53    0.72175       .     S
C53   H60    0.72175       .     S
C57   H54    0.77397       .     S
H54   C57    0.77397       .     S
H60   H54    0.58762       .     S
H54   H60    0.58762       .     S
C57   H55    1.18821       .     S
H55   C57    1.18821       .     S
H58   C57    0.97873       .     S
C57   H58    0.97873       .     S
H59   C57    0.98009       .     S
C57   H59    0.98009       .     S
H60   C57    0.98034       .     S
C57   H60    0.98034       .     S
H62   C61    0.98002       .     S
C61   H62    0.98002       .     S
H63   C61    0.98084       .     S
C61   H63    0.98084       .     S
H64   C61    0.97913       .     S
C61   H64    0.97913       .     S
C65   C61    0.80278       .     S
C61   C65    0.80278       .     S
H68   C61    0.39461       .     S
C61   H68    0.39461       .     S
C65   H62    0.79801       .     S
H62   C65    0.79801       .     S
C65   H63    1.15416       .     S
H63   C65    1.15416       .     S
H66   C65    0.97861       .     S
C65   H66    0.97861       .     S
H67   C65    0.98086       .     S
C65   H67    0.98086       .     S
H68   C65    0.98225       .     S
C65   H68    0.98225       .     S
