data_I
_chemical_name_common  '/data/user2/wty/HOF/MOFDiff/mofdiff/data/test/187_3d-selenophene'
_cell_length_a 13.28510
_cell_length_b 13.28510
_cell_length_c  7.54090
_cell_angle_alpha 90.00000
_cell_angle_beta  90.00000
_cell_angle_gamma 90.00000
_space_group_name_H-M_alt      'P 1'


loop_
_space_group_symop_operation_xyz
  'x, y, z' 

loop_
_atom_site_label
_atom_site_fract_x
_atom_site_fract_y
_atom_site_fract_z
_atom_site_type_symbol
Se0     0.4465    0.091      0.5    Se
C1       0.427    0.954      0.5     C
H2     0.36336  0.92168      0.5     H
C3       0.518    0.904      0.5     C
H4     0.52302  0.83262      0.5     H
C5       0.606    0.968      0.5     C
H6     0.67296  0.94217      0.5     H
C7       0.584    0.068      0.5     C
H8     0.63375  0.11962      0.5     H
O9      0.3129   0.6871   0.1757     O
H10       0.34    0.734     0.12     H
H11    0.27133  0.72867  0.21594     H
Si12   0.38372  0.61628  0.29545    Si
O13     0.3593   0.6407      0.5     O
O14        0.5   0.6387   0.2536     O
loop_
_geom_bond_atom_site_label_1
_geom_bond_atom_site_label_2
_geom_bond_distance
_geom_bond_site_symmetry_2
_ccdc_geom_bond_type
Se0   C1     1.83840   1_545     S
C1    Se0    1.83840   1_565     S
Se0   C7     1.85208       .     S
C7    Se0    1.85208       .     S
C1    H2     0.94825       .     S
H2    C1     0.94825       .     S
C1    C3     1.37941       .     S
C3    C1     1.37941       .     S
C3    H4     0.95063       .     S
H4    C3     0.95063       .     S
C3    C5     1.44558       .     S
C5    C3     1.44558       .     S
C5    H6     0.95346       .     S
H6    C5     0.95346       .     S
C5    C7     1.36028   1_565     S
C7    C5     1.36028   1_545     S
C7    H8     0.95243       .     S
H8    C7     0.95243       .     S
O9    H10    0.83322       .     S
H10   O9     0.83322       .     S
O9    H11    0.83789       .     S
H11   O9     0.83789       .     S
O9    Si12   1.60806       .     S
Si12  O9     1.60806       .     S
Si12  O13    1.60928       .     S
O13   Si12   1.60928       .     S
Si12  O14    1.60458       .     S
O14   Si12   1.60458       .     S
C1    Se0    1.83840   1_565     S
Se0   C1     1.83840   1_545     S
C7    Se0    1.85208       .     S
Se0   C7     1.85208       .     S
H2    C1     0.94825       .     S
C1    H2     0.94825       .     S
C3    C1     1.37941       .     S
C1    C3     1.37941       .     S
H4    C3     0.95063       .     S
C3    H4     0.95063       .     S
C5    C3     1.44558       .     S
C3    C5     1.44558       .     S
H6    C5     0.95346       .     S
C5    H6     0.95346       .     S
C7    C5     1.36028   1_545     S
C5    C7     1.36028   1_565     S
H8    C7     0.95243       .     S
C7    H8     0.95243       .     S
H10   O9     0.83322       .     S
O9    H10    0.83322       .     S
H11   O9     0.83789       .     S
O9    H11    0.83789       .     S
Si12  O9     1.60806       .     S
O9    Si12   1.60806       .     S
O13   Si12   1.60928       .     S
Si12  O13    1.60928       .     S
O14   Si12   1.60458       .     S
Si12  O14    1.60458       .     S
