data_I
_chemical_name_common  '/data/user2/wty/HOF/MOFDiff/mofdiff/data/test/187_3d-thiophene'
_cell_length_a 13.29090
_cell_length_b 13.29090
_cell_length_c  7.54530
_cell_angle_alpha 90.00000
_cell_angle_beta  90.00000
_cell_angle_gamma 90.00000
_space_group_name_H-M_alt      'P 1'


loop_
_space_group_symop_operation_xyz
  'x, y, z' 

loop_
_atom_site_label
_atom_site_fract_x
_atom_site_fract_y
_atom_site_fract_z
_atom_site_type_symbol
S0      0.5493   0.8998      0.5     S
C1       0.577    0.025      0.5     C
H2     0.64007  0.05529      0.5     H
C3       0.486     0.07      0.5     C
H4     0.47819  0.13983      0.5     H
C5       0.403    0.005      0.5     C
H6     0.33776  0.02983      0.5     H
C7       0.419    0.905      0.5     C
H8     0.37305  0.85234      0.5     H
O9     0.68655  0.31345  0.82449     O
H10    0.70342  0.34425  0.91384     H
H11    0.72175  0.27813  0.76049     H
Si12   0.61628  0.38372  0.70441    Si
O13        0.5  0.36133    0.746     O
O14    0.64099  0.35901      0.5     O
loop_
_geom_bond_atom_site_label_1
_geom_bond_atom_site_label_2
_geom_bond_distance
_geom_bond_site_symmetry_2
_ccdc_geom_bond_type
S0    C1     1.70426   1_565     S
C1    S0     1.70426   1_545     S
S0    C7     1.73318       .     S
C7    S0     1.73318       .     S
C1    H2     0.92992       .     S
H2    C1     0.92992       .     S
C1    C3     1.34927       .     S
C3    C1     1.34927       .     S
C3    H4     0.93389       .     S
H4    C3     0.93389       .     S
C3    C5     1.40117       .     S
C5    C3     1.40117       .     S
C5    H6     0.92778       .     S
H6    C5     0.92778       .     S
C5    C7     1.34600   1_545     S
C7    C5     1.34600   1_565     S
C7    H8     0.92889       .     S
H8    C7     0.92889       .     S
O9    H10    0.81997       .     S
H10   O9     0.81997       .     S
O9    H11    0.82002       .     S
H11   O9     0.82002       .     S
O9    Si12   1.60170       .     S
Si12  O9     1.60170       .     S
Si12  O13    1.60484       .     S
O13   Si12   1.60484       .     S
Si12  O14    1.61075       .     S
O14   Si12   1.61075       .     S
C1    S0     1.70426   1_545     S
S0    C1     1.70426   1_565     S
C7    S0     1.73318       .     S
S0    C7     1.73318       .     S
H2    C1     0.92992       .     S
C1    H2     0.92992       .     S
C3    C1     1.34927       .     S
C1    C3     1.34927       .     S
H4    C3     0.93389       .     S
C3    H4     0.93389       .     S
C5    C3     1.40117       .     S
C3    C5     1.40117       .     S
H6    C5     0.92778       .     S
C5    H6     0.92778       .     S
C7    C5     1.34600   1_565     S
C5    C7     1.34600   1_545     S
H8    C7     0.92889       .     S
C7    H8     0.92889       .     S
H10   O9     0.81997       .     S
O9    H10    0.81997       .     S
H11   O9     0.82002       .     S
O9    H11    0.82002       .     S
Si12  O9     1.60170       .     S
O9    Si12   1.60170       .     S
O13   Si12   1.60484       .     S
Si12  O13    1.60484       .     S
O14   Si12   1.61075       .     S
Si12  O14    1.61075       .     S
