data_I
_chemical_name_common  '/data/user2/wty/HOF/MOFDiff/mofdiff/data/test/187_1d-'
_cell_length_a 10.44770
_cell_length_b 12.27380
_cell_length_c 17.98300
_cell_angle_alpha 85.27900
_cell_angle_beta  81.09000
_cell_angle_gamma 71.37500
_space_group_name_H-M_alt      'P 1'


loop_
_space_group_symop_operation_xyz
  'x, y, z' 

loop_
_atom_site_label
_atom_site_fract_x
_atom_site_fract_y
_atom_site_fract_z
_atom_site_type_symbol
O0     0.25764  0.46898   0.3407     O
N1      0.1871  0.65596  0.30661     N
C2      0.2864  0.55847   0.3144     C
C3      0.0451  0.65634  0.32365     C
H4     0.01623  0.63826  0.27932     H
H5     0.98808  0.73108  0.33979     H
H6     0.03789  0.59993  0.36299     H
C7      0.4319  0.55827  0.29242     C
H8     0.45095  0.60934   0.3237     H
H9     0.44463  0.58353  0.24064     H
H10    0.49256   0.4818  0.29896     H
C11     0.2135  0.76078  0.27222     C
H12    0.29664  0.76538  0.28622     H
H13    0.13939  0.82692  0.28957     H
H14    0.22189  0.75856  0.21841     H
O15    0.83708  0.98793  0.94616     O
N16    0.92736  0.79638  0.94583     N
C17     0.8205  0.89053  0.95536     C
C18     0.6812  0.87777  0.97827     C
H19    0.61605  0.95188   0.9891     H
H20    0.68232  0.82792  0.02236     H
H21    0.65644  0.84535  0.93799     H
C22     0.9165  0.68051  0.95529     C
H23     0.9292  0.65196  0.00582     H
H24    0.98511  0.63104  0.92041     H
H25    0.82788  0.68215  0.94587     H
C26     0.0635   0.8094   0.9253     C
H27    0.07165  0.84113  0.87482     H
H28    0.13157  0.73562  0.92831     H
H29    0.07637  0.86011  0.95938     H
O30    0.00177  0.89333   0.7025     O
N31      0.958  0.73068  0.74132     N
C32     0.0443   0.7863  0.71648     C
C33     0.1946   0.7208  0.70679     C
H34    0.21701  0.67378  0.66362     H
H35    0.21643  0.67281   0.7509     H
H36    0.24597  0.77409  0.69967     H
C37      0.812   0.7953  0.76093     C
H38    0.80311  0.87087  0.77602     H
H39     0.7724  0.75549  0.80162     H
H40    0.76573  0.80142  0.71789     H
C41     0.9965   0.6046  0.74551     C
H42    0.07847  0.57316  0.71152     H
H43    0.92448  0.58081  0.73178     H
H44    0.01172  0.57728  0.79597     H
Si45   0.45883  0.17095  0.39455    Si
Si46    0.4218  0.20554  0.56648    Si
Si47   0.26981  0.02309  0.59525    Si
Si48   0.30663  0.98817   0.4226    Si
O49    0.43739  0.27209  0.33081     O
H50    0.37668  0.32917  0.34722     H
O51    0.38025  0.32602  0.60564     O
O52    0.42637  0.86671  0.41643     O
O53    0.24746  0.01211  0.50986     O
O54     0.4207  0.22369  0.47675     O
O55    0.32031  0.13278  0.59957     O
O56    0.36564  0.09066  0.38752     O
O57    0.13187  0.04412  0.65257     O
H58     0.1092  0.98556  0.65715     H
O59     0.6164  0.09357  0.38105     O
O60    0.19231   0.9767  0.37809     O
H61      0.318    0.372   0.5963     H
H62      0.152    0.016   0.3556     H
C63     0.3278   0.5943  0.51072     C
H64    0.34163  0.65398  0.53677     H
H65    0.33786  0.61156   0.4575     H
H66    0.35634  0.52237  0.48598     H
H67    0.34771  0.58089  0.56166     H
O68    0.16578  0.49616  0.56944     O
N69     0.0808  0.67728  0.52269     N
C70     0.1871   0.5869  0.53661     C
N71     0.1731   0.6515   0.5109     N
C72     0.0978   0.5928   0.5436     C
C73     0.0997  0.78421  0.48867     C
H74    0.02956  0.82027  0.45771     H
H75    0.01824  0.81389  0.52338     H
H76     0.1873  0.76768  0.45831     H
H77    0.16046  0.82796  0.49086     H
H78    0.09472  0.83499  0.52762     H
H79    0.07668  0.78995  0.43854     H
C80     0.9421   0.6687  0.54549     C
H81     0.8966  0.67835  0.50182     H
H82    0.88531  0.61991  0.55647     H
H83    0.94812  0.59456  0.56917     H
H84    0.91888  0.72454  0.58375     H
H85    0.89165  0.72764  0.58029     H
H86    0.92838  0.70744   0.4974     H
H87    0.39405   0.5221  0.52134     H
H88    0.37577  0.64406  0.48443     H
Si89   0.58544  0.28416  0.94868    Si
Si90   0.51208  0.34615  0.11656    Si
Si91   0.25268   0.5416  0.08016    Si
Si92   0.32672  0.47975  0.91154    Si
O93    0.62534  0.15994  0.91538     O
O94    0.56596  0.27857  0.03931     O
O95    0.51897  0.24998  0.18197     O
O96    0.24722  0.51893  0.99395     O
O97    0.39205  0.57706  0.87459     O
O98    0.22441  0.47097  0.85685     O
O99    0.69895  0.34663  0.91847     O
O100   0.44371  0.35847  0.91992     O
O101   0.35893  0.43035  0.11492     O
O102    0.1098   0.5566  0.13052     O
H103     0.495    0.265   0.2218     H
H104     0.692     0.11   0.9271     H
H105     0.044     0.61   0.1306     H
H106     0.207    0.414   0.8562     H
O107   0.86732  0.70813  0.15182     O
N108    0.7077  0.87409  0.18557     N
C109    0.8345   0.8153  0.15846     C
N110    0.8141   0.8919   0.1599     N
C111    0.7724   0.8032   0.1722     C
C112    0.6585   0.9998   0.1874     C
H113   0.73379  0.02808  0.18888     H
C114     0.706    0.012   0.1657     C
H115   0.61701  0.00384   0.1694     H
H116   0.71301  0.04798  0.20958     H
H117   0.72177  0.05798  0.12159     H
H118   0.59286  0.02306   0.2314     H
H119   0.61661  0.03081  0.14315     H
C120    0.9394  0.87912  0.13605     C
H121   0.91252  0.93288  0.09513     H
H122   0.02709  0.82483  0.12062     H
H123   0.99286  0.80092  0.14546     H
H124   0.94457  0.91974  0.17833     H
H125   0.96984  0.92978  0.16182     H
H126   0.94987  0.89703  0.08292     H
C127    0.6109   0.8141  0.21196     C
H128   0.56588  0.80634  0.17096     H
H129   0.54466  0.85666  0.25091     H
H130   0.58506  0.86508  0.25323     H
H131   0.65742  0.73918  0.23167     H
H132   0.60628  0.73948  0.23009     H
H133   0.54991  0.84392  0.17509     H
loop_
_geom_bond_atom_site_label_1
_geom_bond_atom_site_label_2
_geom_bond_distance
_geom_bond_site_symmetry_2
_ccdc_geom_bond_type
H50   O0     1.77596       .     S
O0    H50    1.77596       .     S
H58   O30    1.89272       .     S
O30   H58    1.89272       .     S
H61   O68    1.91144       .     S
O68   H61    1.91144       .     S
H103  O49    1.96007       .     S
O49   H103   1.96007       .     S
H104  O15    1.81262   1_545     S
O15   H104   1.81262   1_565     S
H105  O107   1.85499   1_455     S
O107  H105   1.85499   1_655     S
O0    C2     1.26558       .     S
C2    O0     1.26558       .     S
N1    C2     1.32371       .     S
C2    N1     1.32371       .     S
N1    C3     1.46625       .     S
C3    N1     1.46625       .     S
N1    C11    1.46853       .     S
C11   N1     1.46853       .     S
C2    C7     1.50954       .     S
C7    C2     1.50954       .     S
C3    H4     0.96025       .     S
H4    C3     0.96025       .     S
C3    H5     0.96013   1_455     S
H5    C3     0.96013   1_655     S
C3    H6     0.96006       .     S
H6    C3     0.96006       .     S
C7    H8     0.95987       .     S
H8    C7     0.95987       .     S
C7    H9     0.95986       .     S
H9    C7     0.95986       .     S
C7    H10    0.95989       .     S
H10   C7     0.95989       .     S
C11   H12    0.96046       .     S
H12   C11    0.96046       .     S
C11   H13    0.95981       .     S
H13   C11    0.95981       .     S
C11   H14    0.95986       .     S
H14   C11    0.95986       .     S
O15   C17    1.25593       .     S
C17   O15    1.25593       .     S
N16   C17    1.32681       .     S
C17   N16    1.32681       .     S
N16   C22    1.45658       .     S
C22   N16    1.45658       .     S
N16   C26    1.46892   1_655     S
C26   N16    1.46892   1_455     S
C17   C18    1.50386       .     S
C18   C17    1.50386       .     S
C18   H19    0.95982       .     S
H19   C18    0.95982       .     S
C18   H20    0.95999   1_556     S
H20   C18    0.95999   1_554     S
C18   H21    0.95978       .     S
H21   C18    0.95978       .     S
C22   H23    0.95986   1_556     S
H23   C22    0.95986   1_554     S
C22   H24    0.95987       .     S
H24   C22    0.95987       .     S
C22   H25    0.96045       .     S
H25   C22    0.96045       .     S
C26   H27    0.96022       .     S
H27   C26    0.96022       .     S
C26   H28    0.95981       .     S
H28   C26    0.95981       .     S
C26   H29    0.96064       .     S
H29   C26    0.96064       .     S
O30   C32    1.26244       .     S
C32   O30    1.26244       .     S
N31   C32    1.30258   1_655     S
C32   N31    1.30258   1_455     S
N31   C37    1.47878       .     S
C37   N31    1.47878       .     S
N31   C41    1.46792       .     S
C41   N31    1.46792       .     S
C32   C33    1.50812       .     S
C33   C32    1.50812       .     S
C33   H34    0.96005       .     S
H34   C33    0.96005       .     S
C33   H35    0.95995       .     S
H35   C33    0.95995       .     S
C33   H36    0.95990       .     S
H36   C33    0.95990       .     S
C37   H38    0.95978       .     S
H38   C37    0.95978       .     S
C37   H39    0.96013       .     S
H39   C37    0.96013       .     S
C37   H40    0.95996       .     S
H40   C37    0.95996       .     S
C41   H42    0.95996   1_655     S
H42   C41    0.95996   1_455     S
C41   H43    0.96029       .     S
H43   C41    0.96029       .     S
C41   H44    0.96005   1_655     S
H44   C41    0.96005   1_455     S
Si45  O49    1.60398       .     S
O49   Si45   1.60398       .     S
Si45  O54    1.60411       .     S
O54   Si45   1.60411       .     S
Si45  O56    1.61448       .     S
O56   Si45   1.61448       .     S
Si45  O59    1.60827       .     S
O59   Si45   1.60827       .     S
Si46  O51    1.59303       .     S
O51   Si46   1.59303       .     S
Si46  O54    1.61197       .     S
O54   Si46   1.61197       .     S
Si46  O55    1.61178       .     S
O55   Si46   1.61178       .     S
Si47  O53    1.61118       .     S
O53   Si47   1.61118       .     S
Si47  O55    1.60642       .     S
O55   Si47   1.60642       .     S
Si47  O57    1.59753       .     S
O57   Si47   1.59753       .     S
Si48  O52    1.61020       .     S
O52   Si48   1.61020       .     S
Si48  O53    1.60943   1_565     S
O53   Si48   1.60943   1_545     S
Si48  O56    1.61392   1_565     S
O56   Si48   1.61392   1_545     S
Si48  O60    1.58402       .     S
O60   Si48   1.58402       .     S
O49   H50    0.82002       .     S
H50   O49    0.82002       .     S
O51   H61    0.74396       .     S
H61   O51    0.74396       .     S
O57   H58    0.82002   1_545     S
H58   O57    0.82002   1_565     S
O60   H62    0.68154   1_565     S
H62   O60    0.68154   1_545     S
C63   H64    0.96018       .     S
H64   C63    0.96018       .     S
C63   H65    0.95998       .     S
H65   C63    0.95998       .     S
C63   H66    0.96005       .     S
H66   C63    0.96005       .     S
C63   H67    0.96013       .     S
H67   C63    0.96013       .     S
C63   C70    1.50073       .     S
C70   C63    1.50073       .     S
C63   N71    1.54245       .     S
N71   C63    1.54245       .     S
C63   H87    0.96029       .     S
H87   C63    0.96029       .     S
C63   H88    0.96036       .     S
H88   C63    0.96036       .     S
O68   C70    1.28376       .     S
C70   O68    1.28376       .     S
O68   C72    1.26518       .     S
C72   O68    1.26518       .     S
N69   C70    1.33421       .     S
C70   N69    1.33421       .     S
N69   N71    0.90984       .     S
N71   N69    0.90984       .     S
N69   C72    1.04257       .     S
C72   N69    1.04257       .     S
N69   C73    1.46004       .     S
C73   N69    1.46004       .     S
N69   C80    1.47831   1_455     S
C80   N69    1.47831   1_655     S
C70   N71    0.86623       .     S
N71   C70    0.86623       .     S
C70   C72    0.90195       .     S
C72   C70    0.90195       .     S
N71   C72    1.27781       .     S
C72   N71    1.27781       .     S
N71   C73    1.60965       .     S
C73   N71    1.60965       .     S
C72   C80    1.59226   1_455     S
C80   C72    1.59226   1_655     S
C73   H74    0.95996       .     S
H74   C73    0.95996       .     S
C73   H75    0.95994       .     S
H75   C73    0.95994       .     S
C73   H76    0.96006       .     S
H76   C73    0.96006       .     S
C73   H77    0.96012       .     S
H77   C73    0.96012       .     S
C73   H78    0.96002       .     S
H78   C73    0.96002       .     S
C73   H79    0.95988       .     S
H79   C73    0.95988       .     S
H74   H79    0.59263       .     S
H79   H74    0.59263       .     S
C80   H81    0.95974       .     S
H81   C80    0.95974       .     S
C80   H82    0.95960       .     S
H82   C80    0.95960       .     S
C80   H83    0.95985       .     S
H83   C80    0.95985       .     S
C80   H84    0.96004       .     S
H84   C80    0.96004       .     S
C80   H85    0.95999       .     S
H85   C80    0.95999       .     S
C80   H86    0.96005       .     S
H86   C80    0.96005       .     S
H81   H86    0.55400       .     S
H86   H81    0.55400       .     S
H84   H85    0.29057       .     S
H85   H84    0.29057       .     S
Si89  O93    1.58869       .     S
O93   Si89   1.58869       .     S
Si89  O94    1.60939   1_556     S
O94   Si89   1.60939   1_554     S
Si89  O99    1.61310       .     S
O99   Si89   1.61310       .     S
Si89  O100   1.60901       .     S
O100  Si89   1.60901       .     S
Si90  O94    1.60746       .     S
O94   Si90   1.60746       .     S
Si90  O95    1.58917       .     S
O95   Si90   1.58917       .     S
Si90  O101   1.60701       .     S
O101  Si90   1.60701       .     S
Si91  O96    1.61018   1_554     S
O96   Si91   1.61018   1_556     S
Si91  O101   1.61051       .     S
O101  Si91   1.61051       .     S
Si91  O102   1.58604       .     S
O102  Si91   1.58604       .     S
Si92  O96    1.61192       .     S
O96   Si92   1.61192       .     S
Si92  O97    1.60732       .     S
O97   Si92   1.60732       .     S
Si92  O98    1.59314       .     S
O98   Si92   1.59314       .     S
Si92  O100   1.60949       .     S
O100  Si92   1.60949       .     S
O93   H104   0.81037       .     S
H104  O93    0.81037       .     S
O95   H103   0.73920       .     S
H103  O95    0.73920       .     S
O98   H106   0.77808       .     S
H106  O98    0.77808       .     S
O102  H105   0.78372       .     S
H105  O102   0.78372       .     S
O107  C109   1.25982       .     S
C109  O107   1.25982       .     S
O107  C111   1.30308       .     S
C111  O107   1.30308       .     S
N108  C109   1.32688       .     S
C109  N108   1.32688       .     S
N108  N110   1.21501       .     S
N110  N108   1.21501       .     S
N108  C111   0.93819       .     S
C111  N108   0.93819       .     S
N108  C112   1.46373       .     S
C112  N108   1.46373       .     S
N108  C127   1.43514       .     S
C127  N108   1.43514       .     S
C109  N110   0.89684       .     S
N110  C109   0.89684       .     S
C109  C111   0.71407       .     S
C111  C109   0.71407       .     S
C109  C120   1.52863       .     S
C120  C109   1.52863       .     S
N110  C111   1.28742       .     S
C111  N110   1.28742       .     S
N110  C114   1.54427   1_565     S
C114  N110   1.54427   1_545     S
N110  C120   1.27604       .     S
C120  N110   1.27604       .     S
C111  C127   1.69528       .     S
C127  C111   1.69528       .     S
C112  H113   0.96039   1_565     S
H113  C112   0.96039   1_545     S
C112  C114   0.63154   1_565     S
C114  C112   0.63154   1_545     S
C112  H115   0.56765   1_565     S
H115  C112   0.56765   1_545     S
C112  H116   1.07584   1_565     S
H116  C112   1.07584   1_545     S
C112  H118   0.96017   1_565     S
H118  C112   0.96017   1_545     S
C112  H119   0.95982   1_565     S
H119  C112   0.95981   1_545     S
H113  C114   0.62020       .     S
C114  H113   0.62020       .     S
H113  H116   0.44880       .     S
H116  H113   0.44880       .     S
C114  H115   0.95817       .     S
H115  C114   0.95817       .     S
C114  H116   0.95863       .     S
H116  C114   0.95863       .     S
C114  H117   0.95920       .     S
H117  C114   0.95920       .     S
C114  H119   1.02671       .     S
H119  C114   1.02671       .     S
H115  H119   0.55357       .     S
H119  H115   0.55357       .     S
C120  H121   0.95994       .     S
H121  C120   0.95994       .     S
C120  H122   0.96026   1_655     S
H122  C120   0.96026   1_455     S
C120  H123   0.96018       .     S
H123  C120   0.96018       .     S
C120  H124   0.96015       .     S
H124  C120   0.96015       .     S
C120  H125   0.96017       .     S
H125  C120   0.96017       .     S
C120  H126   0.95998       .     S
H126  C120   0.95998       .     S
H121  H126   0.52325       .     S
H126  H121   0.52325       .     S
H122  H123   0.63994   1_455     S
H123  H122   0.63994   1_655     S
H124  H125   0.40437       .     S
H125  H124   0.40437       .     S
C127  H128   0.95996       .     S
H128  C127   0.95996       .     S
C127  H129   0.95999       .     S
H129  C127   0.95999       .     S
C127  H130   0.96004       .     S
H130  C127   0.96004       .     S
C127  H131   0.96004       .     S
H131  C127   0.96004       .     S
C127  H132   0.96003       .     S
H132  C127   0.96003       .     S
C127  H133   0.95998       .     S
H133  C127   0.95998       .     S
H128  H133   0.44581       .     S
H133  H128   0.44581       .     S
H129  H130   0.47393       .     S
H130  H129   0.47393       .     S
H131  H132   0.53826       .     S
H132  H131   0.53826       .     S
O0    H50    1.77596       .     S
H50   O0     1.77596       .     S
O30   H58    1.89272       .     S
H58   O30    1.89272       .     S
O68   H61    1.91144       .     S
H61   O68    1.91144       .     S
O49   H103   1.96007       .     S
H103  O49    1.96007       .     S
O15   H104   1.81262   1_565     S
H104  O15    1.81262   1_545     S
O107  H105   1.85499   1_655     S
H105  O107   1.85499   1_455     S
C2    O0     1.26558       .     S
O0    C2     1.26558       .     S
C2    N1     1.32371       .     S
N1    C2     1.32371       .     S
C3    N1     1.46625       .     S
N1    C3     1.46625       .     S
C11   N1     1.46853       .     S
N1    C11    1.46853       .     S
C7    C2     1.50954       .     S
C2    C7     1.50954       .     S
H4    C3     0.96025       .     S
C3    H4     0.96025       .     S
H5    C3     0.96013   1_655     S
C3    H5     0.96013   1_455     S
H6    C3     0.96006       .     S
C3    H6     0.96006       .     S
H8    C7     0.95987       .     S
C7    H8     0.95987       .     S
H9    C7     0.95986       .     S
C7    H9     0.95986       .     S
H10   C7     0.95989       .     S
C7    H10    0.95989       .     S
H12   C11    0.96046       .     S
C11   H12    0.96046       .     S
H13   C11    0.95981       .     S
C11   H13    0.95981       .     S
H14   C11    0.95986       .     S
C11   H14    0.95986       .     S
C17   O15    1.25593       .     S
O15   C17    1.25593       .     S
C17   N16    1.32681       .     S
N16   C17    1.32681       .     S
C22   N16    1.45658       .     S
N16   C22    1.45658       .     S
C26   N16    1.46892   1_455     S
N16   C26    1.46892   1_655     S
C18   C17    1.50386       .     S
C17   C18    1.50386       .     S
H19   C18    0.95982       .     S
C18   H19    0.95982       .     S
H20   C18    0.95999   1_554     S
C18   H20    0.95999   1_556     S
H21   C18    0.95978       .     S
C18   H21    0.95978       .     S
H23   C22    0.95986   1_554     S
C22   H23    0.95986   1_556     S
H24   C22    0.95987       .     S
C22   H24    0.95987       .     S
H25   C22    0.96045       .     S
C22   H25    0.96045       .     S
H27   C26    0.96022       .     S
C26   H27    0.96022       .     S
H28   C26    0.95981       .     S
C26   H28    0.95981       .     S
H29   C26    0.96064       .     S
C26   H29    0.96064       .     S
C32   O30    1.26244       .     S
O30   C32    1.26244       .     S
C32   N31    1.30258   1_455     S
N31   C32    1.30258   1_655     S
C37   N31    1.47878       .     S
N31   C37    1.47878       .     S
C41   N31    1.46792       .     S
N31   C41    1.46792       .     S
C33   C32    1.50812       .     S
C32   C33    1.50812       .     S
H34   C33    0.96005       .     S
C33   H34    0.96005       .     S
H35   C33    0.95995       .     S
C33   H35    0.95995       .     S
H36   C33    0.95990       .     S
C33   H36    0.95990       .     S
H38   C37    0.95978       .     S
C37   H38    0.95978       .     S
H39   C37    0.96013       .     S
C37   H39    0.96013       .     S
H40   C37    0.95996       .     S
C37   H40    0.95996       .     S
H42   C41    0.95996   1_455     S
C41   H42    0.95996   1_655     S
H43   C41    0.96029       .     S
C41   H43    0.96029       .     S
H44   C41    0.96005   1_455     S
C41   H44    0.96005   1_655     S
O49   Si45   1.60398       .     S
Si45  O49    1.60398       .     S
O54   Si45   1.60411       .     S
Si45  O54    1.60411       .     S
O56   Si45   1.61448       .     S
Si45  O56    1.61448       .     S
O59   Si45   1.60827       .     S
Si45  O59    1.60827       .     S
O51   Si46   1.59303       .     S
Si46  O51    1.59303       .     S
O54   Si46   1.61197       .     S
Si46  O54    1.61197       .     S
O55   Si46   1.61178       .     S
Si46  O55    1.61178       .     S
O53   Si47   1.61118       .     S
Si47  O53    1.61118       .     S
O55   Si47   1.60642       .     S
Si47  O55    1.60642       .     S
O57   Si47   1.59753       .     S
Si47  O57    1.59753       .     S
O52   Si48   1.61020       .     S
Si48  O52    1.61020       .     S
O53   Si48   1.60943   1_545     S
Si48  O53    1.60943   1_565     S
O56   Si48   1.61392   1_545     S
Si48  O56    1.61392   1_565     S
O60   Si48   1.58402       .     S
Si48  O60    1.58402       .     S
H50   O49    0.82002       .     S
O49   H50    0.82002       .     S
H61   O51    0.74396       .     S
O51   H61    0.74396       .     S
H58   O57    0.82002   1_565     S
O57   H58    0.82002   1_545     S
H62   O60    0.68154   1_545     S
O60   H62    0.68154   1_565     S
H64   C63    0.96018       .     S
C63   H64    0.96018       .     S
H65   C63    0.95998       .     S
C63   H65    0.95998       .     S
H66   C63    0.96005       .     S
C63   H66    0.96005       .     S
H67   C63    0.96013       .     S
C63   H67    0.96013       .     S
C70   C63    1.50073       .     S
C63   C70    1.50073       .     S
N71   C63    1.54245       .     S
C63   N71    1.54245       .     S
H87   C63    0.96029       .     S
C63   H87    0.96029       .     S
H88   C63    0.96036       .     S
C63   H88    0.96036       .     S
C70   O68    1.28376       .     S
O68   C70    1.28376       .     S
C72   O68    1.26518       .     S
O68   C72    1.26518       .     S
C70   N69    1.33421       .     S
N69   C70    1.33421       .     S
N71   N69    0.90984       .     S
N69   N71    0.90984       .     S
C72   N69    1.04257       .     S
N69   C72    1.04257       .     S
C73   N69    1.46004       .     S
N69   C73    1.46004       .     S
C80   N69    1.47831   1_655     S
N69   C80    1.47831   1_455     S
N71   C70    0.86623       .     S
C70   N71    0.86623       .     S
C72   C70    0.90195       .     S
C70   C72    0.90195       .     S
C72   N71    1.27781       .     S
N71   C72    1.27781       .     S
C73   N71    1.60965       .     S
N71   C73    1.60965       .     S
C80   C72    1.59226   1_655     S
C72   C80    1.59226   1_455     S
H74   C73    0.95996       .     S
C73   H74    0.95996       .     S
H75   C73    0.95994       .     S
C73   H75    0.95994       .     S
H76   C73    0.96006       .     S
C73   H76    0.96006       .     S
H77   C73    0.96012       .     S
C73   H77    0.96012       .     S
H78   C73    0.96002       .     S
C73   H78    0.96002       .     S
H79   C73    0.95988       .     S
C73   H79    0.95988       .     S
H79   H74    0.59263       .     S
H74   H79    0.59263       .     S
H81   C80    0.95974       .     S
C80   H81    0.95974       .     S
H82   C80    0.95960       .     S
C80   H82    0.95960       .     S
H83   C80    0.95985       .     S
C80   H83    0.95985       .     S
H84   C80    0.96004       .     S
C80   H84    0.96004       .     S
H85   C80    0.95999       .     S
C80   H85    0.95999       .     S
H86   C80    0.96005       .     S
C80   H86    0.96005       .     S
H86   H81    0.55400       .     S
H81   H86    0.55400       .     S
H85   H84    0.29057       .     S
H84   H85    0.29057       .     S
O93   Si89   1.58869       .     S
Si89  O93    1.58869       .     S
O94   Si89   1.60939   1_554     S
Si89  O94    1.60939   1_556     S
O99   Si89   1.61310       .     S
Si89  O99    1.61310       .     S
O100  Si89   1.60901       .     S
Si89  O100   1.60901       .     S
O94   Si90   1.60746       .     S
Si90  O94    1.60746       .     S
O95   Si90   1.58917       .     S
Si90  O95    1.58917       .     S
O101  Si90   1.60701       .     S
Si90  O101   1.60701       .     S
O96   Si91   1.61018   1_556     S
Si91  O96    1.61018   1_554     S
O101  Si91   1.61051       .     S
Si91  O101   1.61051       .     S
O102  Si91   1.58604       .     S
Si91  O102   1.58604       .     S
O96   Si92   1.61192       .     S
Si92  O96    1.61192       .     S
O97   Si92   1.60732       .     S
Si92  O97    1.60732       .     S
O98   Si92   1.59314       .     S
Si92  O98    1.59314       .     S
O100  Si92   1.60949       .     S
Si92  O100   1.60949       .     S
H104  O93    0.81037       .     S
O93   H104   0.81037       .     S
H103  O95    0.73920       .     S
O95   H103   0.73920       .     S
H106  O98    0.77808       .     S
O98   H106   0.77808       .     S
H105  O102   0.78372       .     S
O102  H105   0.78372       .     S
C109  O107   1.25982       .     S
O107  C109   1.25982       .     S
C111  O107   1.30308       .     S
O107  C111   1.30308       .     S
C109  N108   1.32688       .     S
N108  C109   1.32688       .     S
N110  N108   1.21501       .     S
N108  N110   1.21501       .     S
C111  N108   0.93819       .     S
N108  C111   0.93819       .     S
C112  N108   1.46373       .     S
N108  C112   1.46373       .     S
C127  N108   1.43514       .     S
N108  C127   1.43514       .     S
N110  C109   0.89684       .     S
C109  N110   0.89684       .     S
C111  C109   0.71407       .     S
C109  C111   0.71407       .     S
C120  C109   1.52863       .     S
C109  C120   1.52863       .     S
C111  N110   1.28742       .     S
N110  C111   1.28742       .     S
C114  N110   1.54427   1_545     S
N110  C114   1.54427   1_565     S
C120  N110   1.27604       .     S
N110  C120   1.27604       .     S
C127  C111   1.69528       .     S
C111  C127   1.69528       .     S
H113  C112   0.96039   1_545     S
C112  H113   0.96039   1_565     S
C114  C112   0.63154   1_545     S
C112  C114   0.63154   1_565     S
H115  C112   0.56765   1_545     S
C112  H115   0.56765   1_565     S
H116  C112   1.07584   1_545     S
C112  H116   1.07584   1_565     S
H118  C112   0.96017   1_545     S
C112  H118   0.96017   1_565     S
H119  C112   0.95981   1_545     S
C112  H119   0.95982   1_565     S
C114  H113   0.62020       .     S
H113  C114   0.62020       .     S
H116  H113   0.44880       .     S
H113  H116   0.44880       .     S
H115  C114   0.95817       .     S
C114  H115   0.95817       .     S
H116  C114   0.95863       .     S
C114  H116   0.95863       .     S
H117  C114   0.95920       .     S
C114  H117   0.95920       .     S
H119  C114   1.02671       .     S
C114  H119   1.02671       .     S
H119  H115   0.55357       .     S
H115  H119   0.55357       .     S
H121  C120   0.95994       .     S
C120  H121   0.95994       .     S
H122  C120   0.96026   1_455     S
C120  H122   0.96026   1_655     S
H123  C120   0.96018       .     S
C120  H123   0.96018       .     S
H124  C120   0.96015       .     S
C120  H124   0.96015       .     S
H125  C120   0.96017       .     S
C120  H125   0.96017       .     S
H126  C120   0.95998       .     S
C120  H126   0.95998       .     S
H126  H121   0.52325       .     S
H121  H126   0.52325       .     S
H123  H122   0.63994   1_655     S
H122  H123   0.63994   1_455     S
H125  H124   0.40437       .     S
H124  H125   0.40437       .     S
H128  C127   0.95996       .     S
C127  H128   0.95996       .     S
H129  C127   0.95999       .     S
C127  H129   0.95999       .     S
H130  C127   0.96004       .     S
C127  H130   0.96004       .     S
H131  C127   0.96004       .     S
C127  H131   0.96004       .     S
H132  C127   0.96003       .     S
C127  H132   0.96003       .     S
H133  C127   0.95998       .     S
C127  H133   0.95998       .     S
H133  H128   0.44581       .     S
H128  H133   0.44581       .     S
H130  H129   0.47393       .     S
H129  H130   0.47393       .     S
H132  H131   0.53826       .     S
H131  H132   0.53826       .     S
