data_I
_chemical_name_common  '/data/user2/wty/HOF/MOFDiff/mofdiff/data/test/187_3d-benzene'
_cell_length_a 13.29700
_cell_length_b 13.29700
_cell_length_c  7.54600
_cell_angle_alpha 90.00000
_cell_angle_beta  90.00000
_cell_angle_gamma 90.00000
_space_group_name_H-M_alt      'P 1'


loop_
_space_group_symop_operation_xyz
  'x, y, z' 

loop_
_atom_site_label
_atom_site_fract_x
_atom_site_fract_y
_atom_site_fract_z
_atom_site_type_symbol
C0      0.4036      0.0      0.5     C
H1     0.33218      0.0      0.5     H
C2      0.4479   0.0929      0.5     C
H3      0.4098  0.15331      0.5     H
O4     0.68661  0.31339   0.8244     O
H5     0.68086  0.33024  0.93124     H
H6      0.7397  0.29993  0.76897     H
Si7    0.61624  0.38376  0.70441    Si
O8     0.64062  0.35938      0.5     O
O9     0.63853      0.5   0.7461     O
loop_
_geom_bond_atom_site_label_1
_geom_bond_atom_site_label_2
_geom_bond_distance
_geom_bond_site_symmetry_2
_ccdc_geom_bond_type
C0    H1     0.94967       .     S
H1    C0     0.94967       .     S
C0    C2     1.36855       .     S
C2    C0     1.36855       .     S
C2    H3     0.94969       .     S
H3    C2     0.94969       .     S
O4    H5     0.84026       .     S
H5    O4     0.84026       .     S
O4    H6     0.83984       .     S
H6    O4     0.83984       .     S
O4    Si7    1.60341       .     S
Si7   O4     1.60341       .     S
Si7   O8     1.60917       .     S
O8    Si7    1.60917       .     S
Si7   O9     1.60494       .     S
O9    Si7    1.60494       .     S
H1    C0     0.94967       .     S
C0    H1     0.94967       .     S
C2    C0     1.36855       .     S
C0    C2     1.36855       .     S
H3    C2     0.94969       .     S
C2    H3     0.94969       .     S
H5    O4     0.84026       .     S
O4    H5     0.84026       .     S
H6    O4     0.83984       .     S
O4    H6     0.83984       .     S
Si7   O4     1.60341       .     S
O4    Si7    1.60341       .     S
O8    Si7    1.60917       .     S
Si7   O8     1.60917       .     S
O9    Si7    1.60494       .     S
Si7   O9     1.60494       .     S
