data_I
_chemical_name_common  '/data/user2/wty/HOF/MOFDiff/mofdiff/data/test/187_3d-thiophene-pbenzoquinone'
_cell_length_a  7.53600
_cell_length_b 13.11300
_cell_length_c 13.52600
_cell_angle_alpha 90.00000
_cell_angle_beta  90.00000
_cell_angle_gamma 90.00000
_space_group_name_H-M_alt      'P 1'


loop_
_space_group_symop_operation_xyz
  'x, y, z' 

loop_
_atom_site_label
_atom_site_fract_x
_atom_site_fract_y
_atom_site_fract_z
_atom_site_type_symbol
C0         0.5   0.0494   0.4063     C
C1         0.5    0.103   0.4981     C
H2         0.5  0.17545  0.49582     H
C3         0.5   0.0597    0.585     C
O4         0.5   0.0911   0.3254     O
H5         0.5    0.103    0.642     H
O6      0.6762   0.3119    0.315     O
H7     0.73898  0.29056  0.26806     H
H8      0.5689  0.31693  0.33115     H
Si9     0.7945  0.38179  0.38658    Si
O10     0.7432   0.3591      0.5     O
O11        0.0   0.3538   0.3684     O
O12     0.7586      0.5   0.3642     O
S13        0.0   0.0955   0.5475     S
C14        0.0    0.073    0.423     C
H15        0.0  0.12494    0.374     H
C16        0.0    0.972    0.405     C
H17        0.0  0.94422  0.33985     H
C18        0.0    0.911    0.493     C
H19        0.0  0.83848  0.49322     H
C20        0.0    0.971    0.579     C
H21        0.0  0.94484  0.64444     H
loop_
_geom_bond_atom_site_label_1
_geom_bond_atom_site_label_2
_geom_bond_distance
_geom_bond_site_symmetry_2
_ccdc_geom_bond_type
C0    C1     1.42681       .     S
C1    C0     1.42681       .     S
C0    O4     1.22327       .     S
O4    C0     1.22327       .     S
C1    H2     0.95054       .     S
H2    C1     0.95054       .     S
C1    C3     1.30536       .     S
C3    C1     1.30536       .     S
C3    H5     0.95750       .     S
H5    C3     0.95750       .     S
O6    H7     0.83979       .     S
H7    O6     0.83979       .     S
O6    H8     0.84019       .     S
H8    O6     0.84019       .     S
O6    Si9    1.60378       .     S
Si9   O6     1.60378       .     S
Si9   O10    1.60982       .     S
O10   Si9    1.60982       .     S
Si9   O11    1.61043   1_655     S
O11   Si9    1.61043   1_455     S
Si9   O12    1.60237       .     S
O12   Si9    1.60237       .     S
S13   C14    1.70964       .     S
C14   S13    1.70964       .     S
S13   C20    1.68725   1_545     S
C20   S13    1.68725   1_565     S
C14   H15    0.95034       .     S
H15   C14    0.95034       .     S
C14   C16    1.34661   1_545     S
C16   C14    1.34660   1_565     S
C16   H17    0.95354       .     S
H17   C16    0.95354       .     S
C16   C18    1.43409       .     S
C18   C16    1.43409       .     S
C18   H19    0.95096       .     S
H19   C18    0.95096       .     S
C18   C20    1.40433       .     S
C20   C18    1.40433       .     S
C20   H21    0.94929       .     S
H21   C20    0.94929       .     S
C1    C0     1.42681       .     S
C0    C1     1.42681       .     S
O4    C0     1.22327       .     S
C0    O4     1.22327       .     S
H2    C1     0.95054       .     S
C1    H2     0.95054       .     S
C3    C1     1.30536       .     S
C1    C3     1.30536       .     S
H5    C3     0.95750       .     S
C3    H5     0.95750       .     S
H7    O6     0.83979       .     S
O6    H7     0.83979       .     S
H8    O6     0.84019       .     S
O6    H8     0.84019       .     S
Si9   O6     1.60378       .     S
O6    Si9    1.60378       .     S
O10   Si9    1.60982       .     S
Si9   O10    1.60982       .     S
O11   Si9    1.61043   1_455     S
Si9   O11    1.61043   1_655     S
O12   Si9    1.60237       .     S
Si9   O12    1.60237       .     S
C14   S13    1.70964       .     S
S13   C14    1.70964       .     S
C20   S13    1.68725   1_565     S
S13   C20    1.68725   1_545     S
H15   C14    0.95034       .     S
C14   H15    0.95034       .     S
C16   C14    1.34660   1_565     S
C14   C16    1.34661   1_545     S
H17   C16    0.95354       .     S
C16   H17    0.95354       .     S
C18   C16    1.43409       .     S
C16   C18    1.43409       .     S
H19   C18    0.95096       .     S
C18   H19    0.95096       .     S
C20   C18    1.40433       .     S
C18   C20    1.40433       .     S
H21   C20    0.94929       .     S
C20   H21    0.94929       .     S
