data_I
_chemical_name_common  '/data/user2/wty/HOF/MOFDiff/mofdiff/data/test/187_3d-th'
_cell_length_a 13.20960
_cell_length_b 13.20960
_cell_length_c  7.53890
_cell_angle_alpha 90.00000
_cell_angle_beta  90.00000
_cell_angle_gamma 90.00000
_space_group_name_H-M_alt      'P 1'


loop_
_space_group_symop_operation_xyz
  'x, y, z' 

loop_
_atom_site_label
_atom_site_fract_x
_atom_site_fract_y
_atom_site_fract_z
_atom_site_type_symbol
O0      0.3338   0.7052   0.1773     O
H1      0.3725  0.74669  0.13317     H
H2      0.2798   0.6794  0.14831     H
H3     0.28473  0.72576  0.23354     H
Si4     0.3962   0.6279   0.2954    Si
O5      0.5137   0.6383    0.252     O
O6      0.3748   0.6537      0.5     O
loop_
_geom_bond_atom_site_label_1
_geom_bond_atom_site_label_2
_geom_bond_distance
_geom_bond_site_symmetry_2
_ccdc_geom_bond_type
O0    H1     0.82000       .     S
H1    O0     0.82000       .     S
O0    H2     0.82021       .     S
H2    O0     0.82021       .     S
O0    H3     0.82078       .     S
H3    O0     0.82078       .     S
O0    Si4    1.58581       .     S
Si4   O0     1.58581       .     S
Si4   O5     1.59218       .     S
O5    Si4    1.59218       .     S
Si4   O6     1.60476       .     S
O6    Si4    1.60476       .     S
H1    O0     0.82000       .     S
O0    H1     0.82000       .     S
H2    O0     0.82021       .     S
O0    H2     0.82021       .     S
H3    O0     0.82078       .     S
O0    H3     0.82078       .     S
Si4   O0     1.58581       .     S
O0    Si4    1.58581       .     S
O5    Si4    1.59218       .     S
Si4   O5     1.59218       .     S
O6    Si4    1.60476       .     S
Si4   O6     1.60476       .     S
