data_I
_chemical_name_common  '/data/user2/wty/HOF/MOFDiff/mofdiff/data/test/187_3d-thf-pbenzoquinone'
_cell_length_a  7.52870
_cell_length_b 13.14020
_cell_length_c 13.50840
_cell_angle_alpha 90.00000
_cell_angle_beta  90.00000
_cell_angle_gamma 90.00000
_space_group_name_H-M_alt      'P 1'


loop_
_space_group_symop_operation_xyz
  'x, y, z' 

loop_
_atom_site_label
_atom_site_fract_x
_atom_site_fract_y
_atom_site_fract_z
_atom_site_type_symbol
C0         0.0   0.0496   0.5937     C
C1         0.0   0.1032   0.5014     C
H2         0.0  0.17392  0.50294     H
C3         0.0    0.058   0.4149     C
H4         0.0    0.103    0.361     H
O5         0.0   0.0913   0.6749     O
O6      0.8236   0.3121  0.68508     O
H7     0.92911  0.32413  0.67567     H
H8     0.82494  0.25357  0.66404     H
Si9    0.70539   0.3819  0.61321    Si
O10      0.758   0.3593      0.5     O
O11     0.7411      0.5   0.6359     O
O12        0.5   0.3542   0.6317     O
O13    0.53167   0.1006  0.53662     O
C14    0.53172   0.0092  0.59532     C
H15    0.41972   0.0028  0.63026     H
H16    0.62652  0.01207  0.64387     H
C17    0.55897   0.9166   0.5264     C
H18    0.67729  0.88846  0.53397     H
H19    0.47223  0.86387  0.54005     H
C20    0.53311   0.9605  0.42319     C
H21    0.42205  0.93671  0.39506     H
H22    0.62948  0.93958  0.38007     H
C23    0.53074  0.07652  0.43402     C
H24    0.63415  0.10577    0.402     H
H25     0.4252  0.10428  0.40292     H
loop_
_geom_bond_atom_site_label_1
_geom_bond_atom_site_label_2
_geom_bond_distance
_geom_bond_site_symmetry_2
_ccdc_geom_bond_type
C0    C1     1.43200       .     S
C1    C0     1.43200       .     S
C0    O5     1.22613       .     S
O5    C0     1.22613       .     S
C1    H2     0.92951       .     S
H2    C1     0.92951       .     S
C1    C3     1.31076       .     S
C3    C1     1.31076       .     S
C3    H4     0.93797       .     S
H4    C3     0.93797       .     S
O6    H7     0.81984       .     S
H7    O6     0.81984       .     S
O6    H8     0.81999       .     S
H8    O6     0.81999       .     S
O6    Si9    1.60494       .     S
Si9   O6     1.60494       .     S
Si9   O10    1.60742       .     S
O10   Si9    1.60742       .     S
Si9   O11    1.60452       .     S
O11   Si9    1.60452       .     S
Si9   O12    1.60810       .     S
O12   Si9    1.60810       .     S
O13   C14    1.43916       .     S
C14   O13    1.43916       .     S
O13   C23    1.42164       .     S
C23   O13    1.42164       .     S
C14   H15    0.96997       .     S
H15   C14    0.96997       .     S
C14   H16    0.97002       .     S
H16   C14    0.97002       .     S
C14   C17    1.54577   1_545     S
C17   C14    1.54577   1_565     S
C17   H18    0.96990       .     S
H18   C17    0.96990       .     S
C17   H19    0.96982       .     S
H19   C17    0.96982       .     S
C17   C20    1.52134       .     S
C20   C17    1.52134       .     S
C20   H21    0.97018       .     S
H21   C20    0.97018       .     S
C20   H22    0.97019       .     S
H22   C20    0.97019       .     S
C20   C23    1.53163   1_565     S
C23   C20    1.53163   1_545     S
C23   H24    0.97002       .     S
H24   C23    0.97002       .     S
C23   H25    0.97000       .     S
H25   C23    0.97000       .     S
C1    C0     1.43200       .     S
C0    C1     1.43200       .     S
O5    C0     1.22613       .     S
C0    O5     1.22613       .     S
H2    C1     0.92951       .     S
C1    H2     0.92951       .     S
C3    C1     1.31076       .     S
C1    C3     1.31076       .     S
H4    C3     0.93797       .     S
C3    H4     0.93797       .     S
H7    O6     0.81984       .     S
O6    H7     0.81984       .     S
H8    O6     0.81999       .     S
O6    H8     0.81999       .     S
Si9   O6     1.60494       .     S
O6    Si9    1.60494       .     S
O10   Si9    1.60742       .     S
Si9   O10    1.60742       .     S
O11   Si9    1.60452       .     S
Si9   O11    1.60452       .     S
O12   Si9    1.60810       .     S
Si9   O12    1.60810       .     S
C14   O13    1.43916       .     S
O13   C14    1.43916       .     S
C23   O13    1.42164       .     S
O13   C23    1.42164       .     S
H15   C14    0.96997       .     S
C14   H15    0.96997       .     S
H16   C14    0.97002       .     S
C14   H16    0.97002       .     S
C17   C14    1.54577   1_565     S
C14   C17    1.54577   1_545     S
H18   C17    0.96990       .     S
C17   H18    0.96990       .     S
H19   C17    0.96982       .     S
C17   H19    0.96982       .     S
C20   C17    1.52134       .     S
C17   C20    1.52134       .     S
H21   C20    0.97018       .     S
C20   H21    0.97018       .     S
H22   C20    0.97019       .     S
C20   H22    0.97019       .     S
C23   C20    1.53163   1_545     S
C20   C23    1.53163   1_565     S
H24   C23    0.97002       .     S
C23   H24    0.97002       .     S
H25   C23    0.97000       .     S
C23   H25    0.97000       .     S
