data_I
_chemical_name_common  '/data/user2/wty/HOF/MOFDiff/mofdiff/data/test/187_3d-p-benzoquinone'
_cell_length_a 13.41300
_cell_length_b 13.41300
_cell_length_c  7.51210
_cell_angle_alpha 90.00000
_cell_angle_beta  90.00000
_cell_angle_gamma 90.00000
_space_group_name_H-M_alt      'P 1'


loop_
_space_group_symop_operation_xyz
  'x, y, z' 

loop_
_atom_site_label
_atom_site_fract_x
_atom_site_fract_y
_atom_site_fract_z
_atom_site_type_symbol
C0      0.9073   0.5493      0.5     C
C1      0.9983   0.6046      0.5     C
H2     0.99627  0.67395      0.5     H
O3       0.828    0.592      0.5     O
C4      0.0845    0.559      0.5     C
H5      0.1425  0.59693      0.5     H
O6     0.67094  0.70052  0.82226     O
H7      0.7062  0.73353  0.75534     H
H8     0.66871  0.68493  0.92773     H
Si9    0.60585  0.62293   0.7074    Si
O10    0.48975  0.63738   0.7558     O
O11    0.62265  0.64672      0.5     O
loop_
_geom_bond_atom_site_label_1
_geom_bond_atom_site_label_2
_geom_bond_distance
_geom_bond_site_symmetry_2
_ccdc_geom_bond_type
C0    C1     1.42829       .     S
C1    C0     1.42829       .     S
C0    O3     1.20805       .     S
O3    C0     1.20805       .     S
C1    H2     0.93059       .     S
H2    C1     0.93059       .     S
C1    C4     1.30801   1_655     S
C4    C1     1.30801   1_455     S
C4    H5     0.92954       .     S
H5    C4     0.92954       .     S
O6    H7     0.82002       .     S
H7    O6     0.82002       .     S
O6    H8     0.81998       .     S
H8    O6     0.81998       .     S
O6    Si9    1.60929       .     S
Si9   O6     1.60929       .     S
Si9   O10    1.61083       .     S
O10   Si9    1.61083       .     S
Si9   O11    1.60624       .     S
O11   Si9    1.60624       .     S
C1    C0     1.42829       .     S
C0    C1     1.42829       .     S
O3    C0     1.20805       .     S
C0    O3     1.20805       .     S
H2    C1     0.93059       .     S
C1    H2     0.93059       .     S
C4    C1     1.30801   1_455     S
C1    C4     1.30801   1_655     S
H5    C4     0.92954       .     S
C4    H5     0.92954       .     S
H7    O6     0.82002       .     S
O6    H7     0.82002       .     S
H8    O6     0.81998       .     S
O6    H8     0.81998       .     S
Si9   O6     1.60929       .     S
O6    Si9    1.60929       .     S
O10   Si9    1.61083       .     S
Si9   O10    1.61083       .     S
O11   Si9    1.60624       .     S
Si9   O11    1.60624       .     S
