data_I
_chemical_name_common  '/data/user2/wty/HOF/MOFDiff/mofdiff/data/test/187_1d-w'
_cell_length_a  9.23120
_cell_length_b 11.93200
_cell_length_c 12.26560
_cell_angle_alpha 71.23000
_cell_angle_beta  68.28800
_cell_angle_gamma 67.32900
_space_group_name_H-M_alt      'P 1'


loop_
_space_group_symop_operation_xyz
  'x, y, z' 

loop_
_atom_site_label
_atom_site_fract_x
_atom_site_fract_y
_atom_site_fract_z
_atom_site_type_symbol
Si0    0.75279  0.35556  0.58849    Si
Si1    0.31352  0.68106  0.62639    Si
Si2    0.67738  0.63953  0.48336    Si
Si3    0.61064  0.60454  0.26898    Si
O4      0.8994   0.2699   0.6461     O
H5     0.98447    0.285  0.60218     H
O6      0.7621   0.3057   0.4778     O
O7       0.496   0.6948   0.5662     O
O8      0.7916   0.7186   0.4705     O
H9     0.74405  0.76531  0.51796     H
O10     0.1935   0.7877   0.6982     O
H11    0.23084  0.78578  0.75018     H
O12     0.6722   0.4552   0.2889     O
O13     0.5871   0.3477   0.6931     O
O14     0.6719   0.6478   0.3514     O
O15     0.7561    0.497   0.5419     O
O16     0.6834   0.6675   0.1334     O
H17    0.66435   0.6405  0.08822     H
O18     0.2559   0.8363   0.8687     O
N19     0.2451   0.9646   0.9745     N
C20     0.1333   0.0585   0.8047     C
H21    0.11103  0.03251   0.7478     H
H22    0.20425  0.10961  0.76281     H
H23    0.03257  0.10515  0.85213     H
C24     0.2152   0.9459   0.8856     C
C25     0.1992   0.0851   0.0015     C
H26    0.29302  0.09726  0.00699     H
H27    0.11529  0.08956  0.07645     H
H28    0.15891  0.14861  0.93885     H
C29     0.3309   0.8557   0.0532     C
H30    0.26227  0.84977  0.13445     H
H31    0.43118  0.86579  0.04905     H
H32    0.35449  0.78137   0.0269     H
O33     0.7005   0.9139   0.5534     O
C34     0.8318   0.9499   0.5548     C
H35    0.84656  0.02153  0.49112     H
H36    0.93333  0.88235  0.54368     H
C37      0.784    0.981   0.6754     C
H38    0.81754  0.05131  0.66838     H
H39    0.83301  0.91066  0.73092     H
C40     0.5991   0.0125   0.7165     C
H41    0.56149  0.97841  0.80151     H
H42    0.54817  0.10178  0.70192     H
C43     0.5596   0.9553   0.6444     C
H44    0.52015  0.88587  0.69552     H
H45    0.47419  0.01573  0.60922     H
loop_
_geom_bond_atom_site_label_1
_geom_bond_atom_site_label_2
_geom_bond_distance
_geom_bond_site_symmetry_2
_ccdc_geom_bond_type
H9    O33    1.81968       .     S
O33   H9     1.81968       .     S
H11   O18    1.85754       .     S
O18   H11    1.85754       .     S
Si0   O4     1.59752       .     S
O4    Si0    1.59752       .     S
Si0   O6     1.61204       .     S
O6    Si0    1.61204       .     S
Si0   O13    1.60489       .     S
O13   Si0    1.60489       .     S
Si0   O15    1.60682       .     S
O15   Si0    1.60682       .     S
Si1   O7     1.61999       .     S
O7    Si1    1.61999       .     S
Si1   O10    1.59212       .     S
O10   Si1    1.59212       .     S
Si2   O7     1.60999       .     S
O7    Si2    1.60999       .     S
Si2   O8     1.60461       .     S
O8    Si2    1.60461       .     S
Si2   O14    1.60811       .     S
O14   Si2    1.60811       .     S
Si2   O15    1.60730       .     S
O15   Si2    1.60730       .     S
Si3   O12    1.61240       .     S
O12   Si3    1.61240       .     S
Si3   O14    1.60998       .     S
O14   Si3    1.60998       .     S
Si3   O16    1.59360       .     S
O16   Si3    1.59360       .     S
O4    H5     0.82034       .     S
H5    O4     0.82034       .     S
O8    H9     0.82056       .     S
H9    O8     0.82056       .     S
O10   H11    0.82033       .     S
H11   O10    0.82033       .     S
O16   H17    0.82005       .     S
H17   O16    0.82005       .     S
O18   C24    1.27765       .     S
C24   O18    1.27765       .     S
N19   C24    1.31973       .     S
C24   N19    1.31973       .     S
N19   C25    1.44550   1_566     S
C25   N19    1.44550   1_544     S
N19   C29    1.48751   1_556     S
C29   N19    1.48751   1_554     S
C20   H21    0.95922       .     S
H21   C20    0.95922       .     S
C20   H22    0.96028       .     S
H22   C20    0.96028       .     S
C20   H23    0.96024       .     S
H23   C20    0.96024       .     S
C20   C24    1.50845   1_545     S
C24   C20    1.50845   1_565     S
C25   H26    0.96019       .     S
H26   C25    0.96019       .     S
C25   H27    0.95958       .     S
H27   C25    0.95958       .     S
C25   H28    0.96049   1_554     S
H28   C25    0.96049   1_556     S
C29   H30    0.95999       .     S
H30   C29    0.95999       .     S
C29   H31    0.95975       .     S
H31   C29    0.95975       .     S
C29   H32    0.95987       .     S
H32   C29    0.95987       .     S
O33   C34    1.44062       .     S
C34   O33    1.44062       .     S
O33   C43    1.40250       .     S
C43   O33    1.40250       .     S
C34   H35    0.96982   1_565     S
H35   C34    0.96982   1_545     S
C34   H36    0.96979       .     S
H36   C34    0.96979       .     S
C34   C37    1.50487       .     S
C37   C34    1.50487       .     S
C37   H38    0.97011   1_565     S
H38   C37    0.97011   1_545     S
C37   H39    0.96967       .     S
H39   C37    0.96967       .     S
C37   C40    1.51641   1_565     S
C40   C37    1.51641   1_545     S
C40   H41    0.97020   1_545     S
H41   C40    0.97020   1_565     S
C40   H42    0.97025       .     S
H42   C40    0.97025       .     S
C40   C43    1.48314   1_545     S
C43   C40    1.48314   1_565     S
C43   H44    0.97027       .     S
H44   C43    0.97027       .     S
C43   H45    0.97004   1_565     S
H45   C43    0.97004   1_545     S
O33   H9     1.81968       .     S
H9    O33    1.81968       .     S
O18   H11    1.85754       .     S
H11   O18    1.85754       .     S
O4    Si0    1.59752       .     S
Si0   O4     1.59752       .     S
O6    Si0    1.61204       .     S
Si0   O6     1.61204       .     S
O13   Si0    1.60489       .     S
Si0   O13    1.60489       .     S
O15   Si0    1.60682       .     S
Si0   O15    1.60682       .     S
O7    Si1    1.61999       .     S
Si1   O7     1.61999       .     S
O10   Si1    1.59212       .     S
Si1   O10    1.59212       .     S
O7    Si2    1.60999       .     S
Si2   O7     1.60999       .     S
O8    Si2    1.60461       .     S
Si2   O8     1.60461       .     S
O14   Si2    1.60811       .     S
Si2   O14    1.60811       .     S
O15   Si2    1.60730       .     S
Si2   O15    1.60730       .     S
O12   Si3    1.61240       .     S
Si3   O12    1.61240       .     S
O14   Si3    1.60998       .     S
Si3   O14    1.60998       .     S
O16   Si3    1.59360       .     S
Si3   O16    1.59360       .     S
H5    O4     0.82034       .     S
O4    H5     0.82034       .     S
H9    O8     0.82056       .     S
O8    H9     0.82056       .     S
H11   O10    0.82033       .     S
O10   H11    0.82033       .     S
H17   O16    0.82005       .     S
O16   H17    0.82005       .     S
C24   O18    1.27765       .     S
O18   C24    1.27765       .     S
C24   N19    1.31973       .     S
N19   C24    1.31973       .     S
C25   N19    1.44550   1_544     S
N19   C25    1.44550   1_566     S
C29   N19    1.48751   1_554     S
N19   C29    1.48751   1_556     S
H21   C20    0.95922       .     S
C20   H21    0.95922       .     S
H22   C20    0.96028       .     S
C20   H22    0.96028       .     S
H23   C20    0.96024       .     S
C20   H23    0.96024       .     S
C24   C20    1.50845   1_565     S
C20   C24    1.50845   1_545     S
H26   C25    0.96019       .     S
C25   H26    0.96019       .     S
H27   C25    0.95958       .     S
C25   H27    0.95958       .     S
H28   C25    0.96049   1_556     S
C25   H28    0.96049   1_554     S
H30   C29    0.95999       .     S
C29   H30    0.95999       .     S
H31   C29    0.95975       .     S
C29   H31    0.95975       .     S
H32   C29    0.95987       .     S
C29   H32    0.95987       .     S
C34   O33    1.44062       .     S
O33   C34    1.44062       .     S
C43   O33    1.40250       .     S
O33   C43    1.40250       .     S
H35   C34    0.96982   1_545     S
C34   H35    0.96982   1_565     S
H36   C34    0.96979       .     S
C34   H36    0.96979       .     S
C37   C34    1.50487       .     S
C34   C37    1.50487       .     S
H38   C37    0.97011   1_545     S
C37   H38    0.97011   1_565     S
H39   C37    0.96967       .     S
C37   H39    0.96967       .     S
C40   C37    1.51641   1_545     S
C37   C40    1.51641   1_565     S
H41   C40    0.97020   1_565     S
C40   H41    0.97020   1_545     S
H42   C40    0.97025       .     S
C40   H42    0.97025       .     S
C43   C40    1.48314   1_565     S
C40   C43    1.48314   1_545     S
H44   C43    0.97027       .     S
C43   H44    0.97027       .     S
H45   C43    0.97004   1_545     S
C43   H45    0.97004   1_565     S
