data_I
_chemical_name_common  '/data/user2/wty/HOF/MOFDiff/mofdiff/data/test/1882ct-18c6-'
_cell_length_a 27.46870
_cell_length_b 20.32360
_cell_length_c  8.02510
_cell_angle_alpha 90.00000
_cell_angle_beta  90.00000
_cell_angle_gamma 90.00000
_space_group_name_H-M_alt      'P 1'


loop_
_space_group_symop_operation_xyz
  'x, y, z' 

loop_
_atom_site_label
_atom_site_fract_x
_atom_site_fract_y
_atom_site_fract_z
_atom_site_type_symbol
O0       0.495    0.853   0.2229     O
H1     0.52489  0.83877  0.18642     H
H2     0.49029  0.88727  0.16934     H
O3         0.5   0.4124    0.686     O
O4         0.5    0.367     0.57     O
O5         0.5    0.417    0.323     O
O6         0.5    0.382  0.41599     O
O7         0.5    0.344    0.705     O
O8         0.5    0.484  0.24499     O
O9         0.5     0.42    0.182     O
loop_
_geom_bond_atom_site_label_1
_geom_bond_atom_site_label_2
_geom_bond_distance
_geom_bond_site_symmetry_2
_ccdc_geom_bond_type
O0    H1     0.91840       .     S
H1    O0     0.91840       .     S
O0    H2     0.82860       .     S
H2    O0     0.82860       .     S
O3    O4     1.31071       .     S
O4    O3     1.31071       .     S
O3    O7     1.39847       .     S
O7    O3     1.39847       .     S
O4    O6     1.27299       .     S
O6    O4     1.27299       .     S
O4    O7     1.17993       .     S
O7    O4     1.17993       .     S
O5    O6     1.03096       .     S
O6    O5     1.03096       .     S
O5    O9     1.13318       .     S
O9    O5     1.13318       .     S
O8    O9     1.39549       .     S
O9    O8     1.39549       .     S
H1    O0     0.91840       .     S
O0    H1     0.91840       .     S
H2    O0     0.82860       .     S
O0    H2     0.82860       .     S
O4    O3     1.31071       .     S
O3    O4     1.31071       .     S
O7    O3     1.39847       .     S
O3    O7     1.39847       .     S
O6    O4     1.27299       .     S
O4    O6     1.27299       .     S
O7    O4     1.17993       .     S
O4    O7     1.17993       .     S
O6    O5     1.03096       .     S
O5    O6     1.03096       .     S
O9    O5     1.13318       .     S
O5    O9     1.13318       .     S
O9    O8     1.39549       .     S
O8    O9     1.39549       .     S
