data_I
_chemical_name_common  '/data/user2/wty/HOF/MOFDiff/mofdiff/data/test/190_hof-101-ch3'
_cell_length_a 29.11710
_cell_length_b 28.40870
_cell_length_c  3.82460
_cell_angle_alpha 90.00000
_cell_angle_beta  93.12300
_cell_angle_gamma 90.00000
_space_group_name_H-M_alt      'P 1'


loop_
_space_group_symop_operation_xyz
  'x, y, z' 

loop_
_atom_site_label
_atom_site_fract_x
_atom_site_fract_y
_atom_site_fract_z
_atom_site_type_symbol
C0     0.69805   0.7135   0.6287     C
C1     0.65785  0.68424   0.7062     C
C2     0.66363  0.64112   0.8815     C
C3      0.6247  0.61434   0.9403     C
H4     0.62835  0.58536  0.06269     H
C5     0.58045  0.62863   0.8256     C
C6     0.57569  0.67182   0.6577     C
H7     0.54582  0.68246  0.58288     H
C8     0.61374  0.70004   0.5958     C
C9     0.53917   0.6001   0.9011     C
C10    0.53848   0.5504   0.8811     C
C11    0.57425  0.52366   0.7277     C
H12    0.59854  0.53991  0.62364     H
C13        0.5  0.52506      0.0     C
C14        0.5  0.62352      0.0     C
H15        0.5  0.65696      0.0     H
O16     0.7377  0.69994   0.7235     O
H17    0.75718  0.71785  0.63874     H
O18    0.69061  0.75217   0.4604     O
C19     0.5981   0.7502    0.429     C
H20    0.56467  0.75048  0.38345     H
H21    0.61323   0.7551  0.20946     H
H22    0.60697  0.77545  0.59413     H
C23     0.7101   0.6187   0.0223     C
H24    0.70393   0.5896  0.14856     H
H25    0.72646   0.6409  0.18116     H
H26    0.72916  0.61166   0.8252     H
loop_
_geom_bond_atom_site_label_1
_geom_bond_atom_site_label_2
_geom_bond_distance
_geom_bond_site_symmetry_2
_ccdc_geom_bond_type
C0    C1     1.47875       .     S
C1    C0     1.47875       .     S
C0    O16    1.25184       .     S
O16   C0     1.25184       .     S
C0    O18    1.28565       .     S
O18   C0     1.28565       .     S
C1    C2     1.40218       .     S
C2    C1     1.40218       .     S
C1    C8     1.40365       .     S
C8    C1     1.40365       .     S
C2    C3     1.39357       .     S
C3    C2     1.39357       .     S
C2    C23    1.56431   1_556     S
C23   C2     1.56431   1_554     S
C3    H4     0.95015   1_556     S
H4    C3     0.95015   1_554     S
C3    C5     1.39847       .     S
C5    C3     1.39847       .     S
C5    C6     1.38828       .     S
C6    C5     1.38828       .     S
C5    C9     1.49090       .     S
C9    C5     1.49090       .     S
C6    H7     0.95003       .     S
H7    C6     0.95003       .     S
C6    C8     1.39814       .     S
C8    C6     1.39814       .     S
C8    C19    1.61656       .     S
C19   C8     1.61656       .     S
C9    C10    1.41407       .     S
C10   C9     1.41407       .     S
C9    C14    1.39051   1_556     S
C14   C9     1.39051   1_554     S
C10   C11    1.43966       .     S
C11   C10    1.43966       .     S
C10   C13    1.42684   1_556     S
C13   C10    1.42684   1_554     S
C11   H12    0.94994       .     S
H12   C11    0.94994       .     S
C14   H15    0.94999       .     S
H15   C14    0.94999       .     S
O16   H17    0.84007       .     S
H17   O16    0.84007       .     S
C19   H20    0.97949       .     S
H20   C19    0.97949       .     S
C19   H21    0.97917       .     S
H21   C19    0.97917       .     S
C19   H22    0.98099       .     S
H22   C19    0.98099       .     S
C23   H24    0.97895       .     S
H24   C23    0.97895       .     S
C23   H25    0.98096       .     S
H25   C23    0.98096       .     S
C23   H26    0.98073   1_554     S
H26   C23    0.98073   1_556     S
C1    C0     1.47875       .     S
C0    C1     1.47875       .     S
O16   C0     1.25184       .     S
C0    O16    1.25184       .     S
O18   C0     1.28565       .     S
C0    O18    1.28565       .     S
C2    C1     1.40218       .     S
C1    C2     1.40218       .     S
C8    C1     1.40365       .     S
C1    C8     1.40365       .     S
C3    C2     1.39357       .     S
C2    C3     1.39357       .     S
C23   C2     1.56431   1_554     S
C2    C23    1.56431   1_556     S
H4    C3     0.95015   1_554     S
C3    H4     0.95015   1_556     S
C5    C3     1.39847       .     S
C3    C5     1.39847       .     S
C6    C5     1.38828       .     S
C5    C6     1.38828       .     S
C9    C5     1.49090       .     S
C5    C9     1.49090       .     S
H7    C6     0.95003       .     S
C6    H7     0.95003       .     S
C8    C6     1.39814       .     S
C6    C8     1.39814       .     S
C19   C8     1.61656       .     S
C8    C19    1.61656       .     S
C10   C9     1.41407       .     S
C9    C10    1.41407       .     S
C14   C9     1.39051   1_554     S
C9    C14    1.39051   1_556     S
C11   C10    1.43966       .     S
C10   C11    1.43966       .     S
C13   C10    1.42684   1_554     S
C10   C13    1.42684   1_556     S
H12   C11    0.94994       .     S
C11   H12    0.94994       .     S
H15   C14    0.94999       .     S
C14   H15    0.94999       .     S
H17   O16    0.84007       .     S
O16   H17    0.84007       .     S
H20   C19    0.97949       .     S
C19   H20    0.97949       .     S
H21   C19    0.97917       .     S
C19   H21    0.97917       .     S
H22   C19    0.98099       .     S
C19   H22    0.98099       .     S
H24   C23    0.97895       .     S
C23   H24    0.97895       .     S
H25   C23    0.98096       .     S
C23   H25    0.98096       .     S
H26   C23    0.98073   1_556     S
C23   H26    0.98073   1_554     S
