data_I
_chemical_name_common  '/data/user2/wty/HOF/MOFDiff/mofdiff/data/test/190_hof-101-nh2'
_cell_length_a 29.37540
_cell_length_b 27.85270
_cell_length_c  3.87000
_cell_angle_alpha 90.00000
_cell_angle_beta  93.68300
_cell_angle_gamma 90.00000
_space_group_name_H-M_alt      'P 1'


loop_
_space_group_symop_operation_xyz
  'x, y, z' 

loop_
_atom_site_label
_atom_site_fract_x
_atom_site_fract_y
_atom_site_fract_z
_atom_site_type_symbol
C0     0.69636   0.7158   0.6238     C
C1     0.65609  0.68775   0.7031     C
C2     0.66139  0.64414   0.8903     C
C3     0.62342  0.61681   0.9518     C
H4     0.62717   0.5878  0.07956     H
C5     0.57948  0.63105   0.8296     C
C6      0.5746  0.67415   0.6519     C
H7     0.54489  0.68446  0.57326     H
C8     0.61206  0.70297   0.5847     C
C9     0.53886  0.60202   0.9045     C
C10    0.53819   0.5515   0.8844     C
C11    0.57348   0.5242   0.7358     C
H12    0.59757  0.54074  0.63443     H
C13        0.5   0.5256      0.0     C
C14        0.5   0.6258      0.0     C
H15        0.5   0.6599      0.0     H
O16     0.7358  0.69865    0.733     O
H17    0.75655  0.71683  0.67049     H
O18    0.69265  0.75398   0.4519     O
N19     0.6021   0.7466    0.412     N
H20    0.57361  0.75429  0.35288     H
H21    0.62435  0.76607  0.36315     H
N22     0.7029   0.6245    0.024     N
H23    0.70314  0.59699  0.13648     H
H24    0.72868  0.63967  0.99629     H
loop_
_geom_bond_atom_site_label_1
_geom_bond_atom_site_label_2
_geom_bond_distance
_geom_bond_site_symmetry_2
_ccdc_geom_bond_type
H21   O18    2.04163       .     S
O18   H21    2.04163       .     S
C0    C1     1.46648       .     S
C1    C0     1.46648       .     S
C0    O16    1.29851       .     S
O16   C0     1.29851       .     S
C0    O18    1.25538       .     S
O18   C0     1.25538       .     S
C1    C2     1.41774       .     S
C2    C1     1.41774       .     S
C1    C8     1.40940       .     S
C8    C1     1.40940       .     S
C2    C3     1.38357       .     S
C3    C2     1.38357       .     S
C2    N22    1.40455   1_556     S
N22   C2     1.40455   1_554     S
C3    H4     0.94999   1_556     S
H4    C3     0.94999   1_554     S
C3    C5     1.40306       .     S
C5    C3     1.40306       .     S
C5    C6     1.38633       .     S
C6    C5     1.38633       .     S
C5    C9     1.48527       .     S
C9    C5     1.48527       .     S
C6    H7     0.95007       .     S
H7    C6     0.95007       .     S
C6    C8     1.39987       .     S
C8    C6     1.39987       .     S
C8    N19    1.40851       .     S
N19   C8     1.40851       .     S
C9    C10    1.40933       .     S
C10   C9     1.40933       .     S
C9    C14    1.39017   1_556     S
C14   C9     1.39017   1_554     S
C10   C11    1.43532       .     S
C11   C10    1.43532       .     S
C10   C13    1.42953   1_556     S
C13   C10    1.42953   1_554     S
C11   H12    0.95004       .     S
H12   C11    0.95004       .     S
C14   H15    0.94978       .     S
H15   C14    0.94978       .     S
O16   H17    0.83989       .     S
H17   O16    0.83989       .     S
N19   H20    0.87979       .     S
H20   N19    0.87979       .     S
N19   H21    0.87914       .     S
H21   N19    0.87914       .     S
N22   H23    0.88105       .     S
H23   N22    0.88105       .     S
N22   H24    0.87975   1_554     S
H24   N22    0.87975   1_556     S
O18   H21    2.04163       .     S
H21   O18    2.04163       .     S
C1    C0     1.46648       .     S
C0    C1     1.46648       .     S
O16   C0     1.29851       .     S
C0    O16    1.29851       .     S
O18   C0     1.25538       .     S
C0    O18    1.25538       .     S
C2    C1     1.41774       .     S
C1    C2     1.41774       .     S
C8    C1     1.40940       .     S
C1    C8     1.40940       .     S
C3    C2     1.38357       .     S
C2    C3     1.38357       .     S
N22   C2     1.40455   1_554     S
C2    N22    1.40455   1_556     S
H4    C3     0.94999   1_554     S
C3    H4     0.94999   1_556     S
C5    C3     1.40306       .     S
C3    C5     1.40306       .     S
C6    C5     1.38633       .     S
C5    C6     1.38633       .     S
C9    C5     1.48527       .     S
C5    C9     1.48527       .     S
H7    C6     0.95007       .     S
C6    H7     0.95007       .     S
C8    C6     1.39987       .     S
C6    C8     1.39987       .     S
N19   C8     1.40851       .     S
C8    N19    1.40851       .     S
C10   C9     1.40933       .     S
C9    C10    1.40933       .     S
C14   C9     1.39017   1_554     S
C9    C14    1.39017   1_556     S
C11   C10    1.43532       .     S
C10   C11    1.43532       .     S
C13   C10    1.42953   1_554     S
C10   C13    1.42953   1_556     S
H12   C11    0.95004       .     S
C11   H12    0.95004       .     S
H15   C14    0.94978       .     S
C14   H15    0.94978       .     S
H17   O16    0.83989       .     S
O16   H17    0.83989       .     S
H20   N19    0.87979       .     S
N19   H20    0.87979       .     S
H21   N19    0.87914       .     S
N19   H21    0.87914       .     S
H23   N22    0.88105       .     S
N22   H23    0.88105       .     S
H24   N22    0.87975   1_556     S
N22   H24    0.87975   1_554     S
