data_I
_chemical_name_common  '/data/user2/wty/HOF/MOFDiff/mofdiff/data/test/192hof-hapcp'
_cell_length_a  7.90060
_cell_length_b 14.24030
_cell_length_c 35.40200
_cell_angle_alpha 90.00000
_cell_angle_beta  90.00000
_cell_angle_gamma 90.00000
_space_group_name_H-M_alt      'P 1'


loop_
_space_group_symop_operation_xyz
  'x, y, z' 

loop_
_atom_site_label
_atom_site_fract_x
_atom_site_fract_y
_atom_site_fract_z
_atom_site_type_symbol
C0      0.4704   0.5723  0.04546     C
C1      0.5009   0.5016  0.07198     C
H2     0.46962  0.51029  0.09706     H
C3      0.5775   0.4189    0.061     C
H4      0.5978  0.37153  0.07846     H
C5      0.6238   0.4074   0.0236     C
C6      0.5998   0.4783   0.9982     C
H7     0.63724  0.47038  0.97346     H
C8      0.5198   0.5634   0.0083     C
H9      0.5013  0.61092  0.99077     H
C10       0.71   0.3175   0.0083     C
H11    0.73931  0.31429  0.98287     H
C12      0.486   0.8587  0.99703     C
C13     0.5554   0.9357  0.01493     C
H14     0.5799  0.93338  0.04061     H
C15     0.5879   0.0155  0.99468     C
H16    0.63588  0.06729   0.0066     H
C17     0.5496   0.0196  0.95629     C
C18     0.4772   0.9435   0.9386     C
H19    0.45066   0.9462  0.91302     H
C20      0.444   0.8626  0.95922     C
H21    0.39368  0.81117  0.94757     H
C22     0.5927   0.1144   0.9364     C
H23    0.63581  0.16667  0.94883     H
C24     0.2479   0.0516  0.12117     C
C25     0.2029   0.0604  0.15877     C
H26     0.1516  0.01086  0.17152     H
C27     0.2358    0.144   0.1769     C
H28    0.20981  0.15061  0.20241     H
C29     0.3078   0.2188   0.1572     C
C30     0.3539   0.2077   0.1201     C
H31    0.40565  0.25712  0.10737     H
C32     0.3249   0.1253   0.1017     C
H33    0.35603  0.11824  0.07653     H
C34     0.3347   0.3104   0.1782     C
H35    0.30385  0.31455  0.20345     H
C36     0.7602   0.0066  0.12025     C
C37     0.7319   0.0214  0.15796     C
H38    0.69923  0.97208  0.17353     H
C39     0.7526   0.1105  0.17255     C
H40    0.73033  0.12181  0.19794     H
C41     0.8065   0.1834   0.1494     C
C42     0.8345   0.1666   0.1114     C
H43    0.86877  0.21523  0.09559     H
C44     0.8112    0.077  0.09682     C
H45    0.83017  0.06513  0.07134     H
C46     0.8319   0.2788   0.1644     C
H47    0.86675  0.32528  0.14768     H
C48     0.1304   0.7589  0.16251     C
C49     0.0823     0.77  0.19982     C
H50    0.06268   0.8294  0.20987     H
C51     0.0644    0.691  0.22148     C
H52    0.03098   0.6972  0.24654     H
C53      0.095   0.6013    0.207     C
C54     0.1506   0.5945   0.1705     C
H55    0.17775   0.5357  0.16079     H
C56     0.1677   0.6728   0.1475     C
H57    0.20363  0.66696  0.12264     H
C58     0.0667   0.5147   0.2296     C
H59    0.10134  0.45769  0.21936     H
C60     0.6709   0.7129  0.16951     C
C61     0.5894   0.7305  0.20312     C
H62     0.5637  0.79122  0.21089     H
C63     0.5473   0.6523  0.22493     C
H64    0.49066    0.661  0.24769     H
C65     0.5871   0.5634  0.21371     C
C66     0.6686   0.5501   0.1804     C
H67    0.69668  0.48939  0.17297     H
C68      0.711   0.6247  0.15713     C
H69    0.76455  0.61517  0.13405     H
C70     0.5496   0.4768   0.2364     C
H71    0.60066  0.42048  0.22958     H
N72     0.4501   0.8755  0.13352     N
N73     0.6027    0.768  0.08067     N
N74     0.2685    0.809  0.07435     N
O75     0.2119   0.9716  0.10042     O
O76     0.1304   0.8415  0.14022     O
O77     0.7309   0.7894  0.14773     O
O78     0.7429   0.9175   0.1031     O
O79     0.3749   0.6487  0.05735     O
O80     0.4531   0.7738   0.0151     O
O81     0.3946   0.3774   0.1629     O
O82     0.8106   0.3002   0.1965     O
O83     0.5633    0.112   0.9025     O
O84      0.739   0.2578   0.0266     O
O85     0.4575   0.4779   0.2626     O
O86     0.0014   0.5141  0.26028     O
P87    0.61929  0.83605  0.11573     P
P88    0.27625  0.87005  0.11156     P
P89     0.4291  0.75584  0.05879     P
loop_
_geom_bond_atom_site_label_1
_geom_bond_atom_site_label_2
_geom_bond_distance
_geom_bond_site_symmetry_2
_ccdc_geom_bond_type
C0    C1     1.39755       .     S
C1    C0     1.39755       .     S
C0    C8     1.37805       .     S
C8    C0     1.37805       .     S
C0    O79    1.38929       .     S
O79   C0     1.38929       .     S
C1    H2     0.92990       .     S
H2    C1     0.92990       .     S
C1    C3     1.37995       .     S
C3    C1     1.37995       .     S
C3    H4     0.92889       .     S
H4    C3     0.92889       .     S
C3    C5     1.38336       .     S
C5    C3     1.38336       .     S
C5    C6     1.36525   1_554     S
C6    C5     1.36525   1_556     S
C5    C10    1.54794       .     S
C10   C5     1.54794       .     S
C6    H7     0.93130       .     S
H7    C6     0.93130       .     S
C6    C8     1.41277   1_556     S
C8    C6     1.41277   1_554     S
C8    H9     0.92975   1_554     S
H9    C8     0.92975   1_556     S
C10   H11    0.93070   1_554     S
H11   C10    0.93070   1_556     S
C10   O84    1.09314       .     S
O84   C10    1.09314       .     S
C12   C13    1.38004   1_556     S
C13   C12    1.38005   1_554     S
C12   C20    1.38018       .     S
C20   C12    1.38018       .     S
C12   O80    1.39229   1_556     S
O80   C12    1.39229   1_554     S
C13   H14    0.93009       .     S
H14   C13    0.93009       .     S
C13   C15    1.36792   1_564     S
C15   C13    1.36792   1_546     S
C15   H16    0.93042   1_556     S
H16   C15    0.93042   1_554     S
C15   C17    1.39358       .     S
C17   C15    1.39358       .     S
C17   C18    1.37614   1_545     S
C18   C17    1.37614   1_565     S
C17   C22    1.56020       .     S
C22   C17    1.56020       .     S
C18   H19    0.93034       .     S
H19   C18    0.93034       .     S
C18   C20    1.38884       .     S
C20   C18    1.38884       .     S
C20   H21    0.92980       .     S
H21   C20    0.92980       .     S
C22   H23    0.92935       .     S
H23   C22    0.92935       .     S
C22   O83    1.22288       .     S
O83   C22    1.22288       .     S
C24   C25    1.38346       .     S
C25   C24    1.38346       .     S
C24   C32    1.39523       .     S
C32   C24    1.39523       .     S
C24   O75    1.38505   1_545     S
O75   C24    1.38505   1_565     S
C25   H26    0.93042       .     S
H26   C25    0.93042       .     S
C25   C27    1.37724       .     S
C27   C25    1.37724       .     S
C27   H28    0.93093       .     S
H28   C27    0.93093       .     S
C27   C29    1.39448       .     S
C29   C27    1.39448       .     S
C29   C30    1.37211       .     S
C30   C29    1.37211       .     S
C29   C34    1.51637       .     S
C34   C29    1.51637       .     S
C30   H31    0.93034       .     S
H31   C30    0.93034       .     S
C30   C32    1.36150       .     S
C32   C30    1.36150       .     S
C32   H33    0.92984       .     S
H33   C32    0.92984       .     S
C34   H35    0.92842       .     S
H35   C34    0.92842       .     S
C34   O81    1.19484       .     S
O81   C34    1.19484       .     S
C36   C37    1.36991       .     S
C37   C36    1.36991       .     S
C36   C44    1.36214       .     S
C44   C36    1.36214       .     S
C36   O78    1.41322   1_545     S
O78   C36    1.41322   1_565     S
C37   H38    0.92937   1_545     S
H38   C37    0.92937   1_565     S
C37   C39    1.37964       .     S
C39   C37    1.37964       .     S
C39   H40    0.92997       .     S
H40   C39    0.92997       .     S
C39   C41    1.38950       .     S
C41   C39    1.38950       .     S
C41   C42    1.38417       .     S
C42   C41    1.38417       .     S
C41   C46    1.47236       .     S
C46   C41    1.47236       .     S
C42   H43    0.93067       .     S
H43   C42    0.93067       .     S
C42   C44    1.38864       .     S
C44   C42    1.38864       .     S
C44   H45    0.92990       .     S
H45   C44    0.92990       .     S
C46   H47    0.92967       .     S
H47   C46    0.92967       .     S
C46   O82    1.18853       .     S
O82   C46    1.18853       .     S
C48   C49    1.38349       .     S
C49   C48    1.38349       .     S
C48   C56    1.36840       .     S
C56   C48    1.36840       .     S
C48   O76    1.41642       .     S
O76   C48    1.41642       .     S
C49   H50    0.93066       .     S
H50   C49    0.93066       .     S
C49   C51    1.36879       .     S
C51   C49    1.36879       .     S
C51   H52    0.92983       .     S
H52   C51    0.92983       .     S
C51   C53    1.39745       .     S
C53   C51    1.39745       .     S
C53   C54    1.36823       .     S
C54   C53    1.36823       .     S
C53   C58    1.48692       .     S
C58   C53    1.48692       .     S
C54   H55    0.93021       .     S
H55   C54    0.93021       .     S
C54   C56    1.38727       .     S
C56   C54    1.38727       .     S
C56   H57    0.92847       .     S
H57   C56    0.92847       .     S
C58   H59    0.93027       .     S
H59   C58    0.93027       .     S
C58   O86    1.20247       .     S
O86   C58    1.20247       .     S
C60   C61    1.37593       .     S
C61   C60    1.37593       .     S
C60   C68    1.36747       .     S
C68   C60    1.36747       .     S
C60   O77    1.41633       .     S
O77   C60    1.41633       .     S
C61   H62    0.92981       .     S
H62   C61    0.92981       .     S
C61   C63    1.39531       .     S
C63   C61    1.39531       .     S
C63   H64    0.92996       .     S
H64   C63    0.92996       .     S
C63   C65    1.36357       .     S
C65   C63    1.36357       .     S
C65   C66    1.35687       .     S
C66   C65    1.35687       .     S
C65   C70    1.50128       .     S
C70   C65    1.50128       .     S
C66   H67    0.93049       .     S
H67   C66    0.93049       .     S
C66   C68    1.38543       .     S
C68   C66    1.38543       .     S
C68   H69    0.93007       .     S
H69   C68    0.93007       .     S
C70   H71    0.92965       .     S
H71   C70    0.92965       .     S
C70   O85    1.17900       .     S
O85   C70    1.17900       .     S
N72   P87    1.58083       .     S
P87   N72    1.58083       .     S
N72   P88    1.58018       .     S
P88   N72    1.58018       .     S
N73   P87    1.58013       .     S
P87   N73    1.58013       .     S
N73   P89    1.58465       .     S
P89   N73    1.58465       .     S
N74   P88    1.57951       .     S
P88   N74    1.57951       .     S
N74   P89    1.57685       .     S
P89   N74    1.57685       .     S
O75   P88    1.58279       .     S
P88   O75    1.58279       .     S
O76   P88    1.58825       .     S
P88   O76    1.58825       .     S
O77   P87    1.58184       .     S
P87   O77    1.58184       .     S
O78   P87    1.58081       .     S
P87   O78    1.58081       .     S
O79   P89    1.58548       .     S
P89   O79    1.58548       .     S
O80   P89    1.57914       .     S
P89   O80    1.57914       .     S
C1    C0     1.39755       .     S
C0    C1     1.39755       .     S
C8    C0     1.37805       .     S
C0    C8     1.37805       .     S
O79   C0     1.38929       .     S
C0    O79    1.38929       .     S
H2    C1     0.92990       .     S
C1    H2     0.92990       .     S
C3    C1     1.37995       .     S
C1    C3     1.37995       .     S
H4    C3     0.92889       .     S
C3    H4     0.92889       .     S
C5    C3     1.38336       .     S
C3    C5     1.38336       .     S
C6    C5     1.36525   1_556     S
C5    C6     1.36525   1_554     S
C10   C5     1.54794       .     S
C5    C10    1.54794       .     S
H7    C6     0.93130       .     S
C6    H7     0.93130       .     S
C8    C6     1.41277   1_554     S
C6    C8     1.41277   1_556     S
H9    C8     0.92975   1_556     S
C8    H9     0.92975   1_554     S
H11   C10    0.93070   1_556     S
C10   H11    0.93070   1_554     S
O84   C10    1.09314       .     S
C10   O84    1.09314       .     S
C13   C12    1.38005   1_554     S
C12   C13    1.38004   1_556     S
C20   C12    1.38018       .     S
C12   C20    1.38018       .     S
O80   C12    1.39229   1_554     S
C12   O80    1.39229   1_556     S
H14   C13    0.93009       .     S
C13   H14    0.93009       .     S
C15   C13    1.36792   1_546     S
C13   C15    1.36792   1_564     S
H16   C15    0.93042   1_554     S
C15   H16    0.93042   1_556     S
C17   C15    1.39358       .     S
C15   C17    1.39358       .     S
C18   C17    1.37614   1_565     S
C17   C18    1.37614   1_545     S
C22   C17    1.56020       .     S
C17   C22    1.56020       .     S
H19   C18    0.93034       .     S
C18   H19    0.93034       .     S
C20   C18    1.38884       .     S
C18   C20    1.38884       .     S
H21   C20    0.92980       .     S
C20   H21    0.92980       .     S
H23   C22    0.92935       .     S
C22   H23    0.92935       .     S
O83   C22    1.22288       .     S
C22   O83    1.22288       .     S
C25   C24    1.38346       .     S
C24   C25    1.38346       .     S
C32   C24    1.39523       .     S
C24   C32    1.39523       .     S
O75   C24    1.38505   1_565     S
C24   O75    1.38505   1_545     S
H26   C25    0.93042       .     S
C25   H26    0.93042       .     S
C27   C25    1.37724       .     S
C25   C27    1.37724       .     S
H28   C27    0.93093       .     S
C27   H28    0.93093       .     S
C29   C27    1.39448       .     S
C27   C29    1.39448       .     S
C30   C29    1.37211       .     S
C29   C30    1.37211       .     S
C34   C29    1.51637       .     S
C29   C34    1.51637       .     S
H31   C30    0.93034       .     S
C30   H31    0.93034       .     S
C32   C30    1.36150       .     S
C30   C32    1.36150       .     S
H33   C32    0.92984       .     S
C32   H33    0.92984       .     S
H35   C34    0.92842       .     S
C34   H35    0.92842       .     S
O81   C34    1.19484       .     S
C34   O81    1.19484       .     S
C37   C36    1.36991       .     S
C36   C37    1.36991       .     S
C44   C36    1.36214       .     S
C36   C44    1.36214       .     S
O78   C36    1.41322   1_565     S
C36   O78    1.41322   1_545     S
H38   C37    0.92937   1_565     S
C37   H38    0.92937   1_545     S
C39   C37    1.37964       .     S
C37   C39    1.37964       .     S
H40   C39    0.92997       .     S
C39   H40    0.92997       .     S
C41   C39    1.38950       .     S
C39   C41    1.38950       .     S
C42   C41    1.38417       .     S
C41   C42    1.38417       .     S
C46   C41    1.47236       .     S
C41   C46    1.47236       .     S
H43   C42    0.93067       .     S
C42   H43    0.93067       .     S
C44   C42    1.38864       .     S
C42   C44    1.38864       .     S
H45   C44    0.92990       .     S
C44   H45    0.92990       .     S
H47   C46    0.92967       .     S
C46   H47    0.92967       .     S
O82   C46    1.18853       .     S
C46   O82    1.18853       .     S
C49   C48    1.38349       .     S
C48   C49    1.38349       .     S
C56   C48    1.36840       .     S
C48   C56    1.36840       .     S
O76   C48    1.41642       .     S
C48   O76    1.41642       .     S
H50   C49    0.93066       .     S
C49   H50    0.93066       .     S
C51   C49    1.36879       .     S
C49   C51    1.36879       .     S
H52   C51    0.92983       .     S
C51   H52    0.92983       .     S
C53   C51    1.39745       .     S
C51   C53    1.39745       .     S
C54   C53    1.36823       .     S
C53   C54    1.36823       .     S
C58   C53    1.48692       .     S
C53   C58    1.48692       .     S
H55   C54    0.93021       .     S
C54   H55    0.93021       .     S
C56   C54    1.38727       .     S
C54   C56    1.38727       .     S
H57   C56    0.92847       .     S
C56   H57    0.92847       .     S
H59   C58    0.93027       .     S
C58   H59    0.93027       .     S
O86   C58    1.20247       .     S
C58   O86    1.20247       .     S
C61   C60    1.37593       .     S
C60   C61    1.37593       .     S
C68   C60    1.36747       .     S
C60   C68    1.36747       .     S
O77   C60    1.41633       .     S
C60   O77    1.41633       .     S
H62   C61    0.92981       .     S
C61   H62    0.92981       .     S
C63   C61    1.39531       .     S
C61   C63    1.39531       .     S
H64   C63    0.92996       .     S
C63   H64    0.92996       .     S
C65   C63    1.36357       .     S
C63   C65    1.36357       .     S
C66   C65    1.35687       .     S
C65   C66    1.35687       .     S
C70   C65    1.50128       .     S
C65   C70    1.50128       .     S
H67   C66    0.93049       .     S
C66   H67    0.93049       .     S
C68   C66    1.38543       .     S
C66   C68    1.38543       .     S
H69   C68    0.93007       .     S
C68   H69    0.93007       .     S
H71   C70    0.92965       .     S
C70   H71    0.92965       .     S
O85   C70    1.17900       .     S
C70   O85    1.17900       .     S
P87   N72    1.58083       .     S
N72   P87    1.58083       .     S
P88   N72    1.58018       .     S
N72   P88    1.58018       .     S
P87   N73    1.58013       .     S
N73   P87    1.58013       .     S
P89   N73    1.58465       .     S
N73   P89    1.58465       .     S
P88   N74    1.57951       .     S
N74   P88    1.57951       .     S
P89   N74    1.57685       .     S
N74   P89    1.57685       .     S
P88   O75    1.58279       .     S
O75   P88    1.58279       .     S
P88   O76    1.58825       .     S
O76   P88    1.58825       .     S
P87   O77    1.58184       .     S
O77   P87    1.58184       .     S
P87   O78    1.58081       .     S
O78   P87    1.58081       .     S
P89   O79    1.58548       .     S
O79   P89    1.58548       .     S
P89   O80    1.57914       .     S
O80   P89    1.57914       .     S
