data_I
_chemical_name_common  '/data/user2/wty/HOF/MOFDiff/mofdiff/data/test/192hof-tripod'
_cell_length_a 14.57530
_cell_length_b 14.57530
_cell_length_c 20.67090
_cell_angle_alpha 90.00000
_cell_angle_beta  90.00000
_cell_angle_gamma 120.00000
_space_group_name_H-M_alt      'P 1'


loop_
_space_group_symop_operation_xyz
  'x, y, z' 

loop_
_atom_site_label
_atom_site_fract_x
_atom_site_fract_y
_atom_site_fract_z
_atom_site_type_symbol
C0      0.5995   0.1656   0.0587     C
H1     0.59171   0.1841  0.01681     H
O2      0.5669   0.1952   0.0987     O
H3     0.60105  0.20214  0.09594     H
O4      0.5607   0.1759   0.0194     O
O5     0.79492   0.9192   0.0804     O
N6     0.96003  0.06756  0.08127     N
C7     0.90063  0.96381  0.08122     C
C8     0.75016  0.98474  0.07465     C
C9     0.71143  0.99045  0.01605     C
H10    0.71733   0.9547  0.98046     H
C11     0.7404   0.0348  0.12788     C
H12    0.76743  0.02952  0.16761     H
C13    0.66299   0.0509  0.01076     C
H14    0.63729  0.05726  0.97084     H
C15     0.6904   0.0928  0.12199     C
H16    0.68258  0.12617  0.15817     H
C17    0.65224  0.10203  0.06424     C
O18     0.0808  0.87572   0.0804     O
N19    0.93244  0.89247  0.08127     N
C20    0.03619  0.93682  0.08122     C
C21    0.01526  0.76542  0.07465     C
C22    0.00955  0.72098  0.01605     C
H23     0.0453  0.76262  0.98046     H
C24     0.9652   0.7056  0.12788     C
H25    0.97048  0.73791  0.16761     H
C26     0.9491  0.61209  0.01076     C
H27    0.94274  0.58003  0.97084     H
C28     0.9072   0.5976  0.12199     C
H29    0.87383  0.55641  0.15817     H
C30    0.89797  0.55021  0.06424     C
C31     0.8344   0.4339   0.0587     C
H32     0.8159  0.40761  0.01681     H
O33     0.8048   0.3717   0.0987     O
O34    0.12428  0.20508   0.0804     O
N35    0.10753  0.03997  0.08127     N
C36    0.06318  0.09937  0.08122     C
C37    0.23458  0.24984  0.07465     C
C38    0.27902  0.28857  0.01605     C
H39    0.23738  0.28267  0.98046     H
C40     0.2944   0.2596  0.12788     C
H41    0.26209  0.23257  0.16761     H
C42    0.38791  0.33701  0.01076     C
H43    0.41997  0.36271  0.97084     H
C44     0.4024   0.3096  0.12199     C
H45    0.44359  0.31742  0.15817     H
C46    0.44979  0.34776  0.06424     C
C47     0.5661   0.4005   0.0587     C
H48    0.59239  0.40829  0.01681     H
O49     0.6283   0.4331   0.0987     O
loop_
_geom_bond_atom_site_label_1
_geom_bond_atom_site_label_2
_geom_bond_distance
_geom_bond_site_symmetry_2
_ccdc_geom_bond_type
C0    H1     0.93059       .     S
H1    C0     0.93059       .     S
C0    O2     1.14042       .     S
O2    C0     1.14042       .     S
C0    H3     0.92989       .     S
H3    C0     0.92989       .     S
C0    O4     1.04268       .     S
O4    C0     1.04268       .     S
C0    C17    1.47471       .     S
C17   C0     1.47471       .     S
H1    O4     0.40917       .     S
O4    H1     0.40917       .     S
O2    H3     0.45923       .     S
H3    O2     0.45923       .     S
O5    C7     1.33984       .     S
C7    O5     1.33984       .     S
O5    C8     1.40552       .     S
C8    O5     1.40552       .     S
N6    C7     1.31418   1_545     S
C7    N6     1.31418   1_565     S
N6    C36    1.33351   1_655     S
C36   N6     1.33351   1_455     S
C7    N19    1.33351       .     S
N19   C7     1.33351       .     S
C8    C9     1.35641       .     S
C9    C8     1.35641       .     S
C8    C11    1.36642   1_565     S
C11   C8     1.36642   1_545     S
C9    H10    0.93002   1_554     S
H10   C9     0.93002   1_556     S
C9    C13    1.38159   1_565     S
C13   C9     1.38159   1_545     S
C11   H12    0.93054       .     S
H12   C11    0.93054       .     S
C11   C15    1.36991       .     S
C15   C11    1.36991       .     S
C13   H14    0.92982   1_554     S
H14   C13    0.92981   1_556     S
C13   C17    1.38520       .     S
C17   C13    1.38520       .     S
C15   H16    0.92968       .     S
H16   C15    0.92968       .     S
C15   C17    1.35178       .     S
C17   C15    1.35178       .     S
O18   C20    1.33984       .     S
C20   O18    1.33984       .     S
O18   C21    1.40552       .     S
C21   O18    1.40552       .     S
N19   C20    1.31418   1_655     S
C20   N19    1.31418   1_455     S
C20   N35    1.33351   1_565     S
N35   C20    1.33351   1_545     S
C21   C22    1.35641       .     S
C22   C21    1.35641       .     S
C21   C24    1.36642   1_455     S
C24   C21    1.36642   1_655     S
C22   H23    0.92996   1_554     S
H23   C22    0.92997   1_556     S
C22   C26    1.38159   1_455     S
C26   C22    1.38159   1_655     S
C24   H25    0.93054       .     S
H25   C24    0.93054       .     S
C24   C28    1.36991       .     S
C28   C24    1.36991       .     S
C26   H27    0.92981   1_554     S
H27   C26    0.92981   1_556     S
C26   C30    1.38520       .     S
C30   C26    1.38520       .     S
C28   H29    0.92968       .     S
H29   C28    0.92968       .     S
C28   C30    1.35178       .     S
C30   C28    1.35178       .     S
C30   C31    1.47470       .     S
C31   C30    1.47470       .     S
C31   H32    0.93059       .     S
H32   C31    0.93059       .     S
C31   O33    1.14042       .     S
O33   C31    1.14042       .     S
O34   C36    1.33984       .     S
C36   O34    1.33984       .     S
O34   C37    1.40552       .     S
C37   O34    1.40552       .     S
N35   C36    1.31418       .     S
C36   N35    1.31418       .     S
C37   C38    1.35641       .     S
C38   C37    1.35641       .     S
C37   C40    1.36642       .     S
C40   C37    1.36642       .     S
C38   H39    0.92993   1_554     S
H39   C38    0.92993   1_556     S
C38   C42    1.38159       .     S
C42   C38    1.38159       .     S
C40   H41    0.93054       .     S
H41   C40    0.93054       .     S
C40   C44    1.36991       .     S
C44   C40    1.36991       .     S
C42   H43    0.92982   1_554     S
H43   C42    0.92982   1_556     S
C42   C46    1.38520       .     S
C46   C42    1.38520       .     S
C44   H45    0.92968       .     S
H45   C44    0.92968       .     S
C44   C46    1.35178       .     S
C46   C44    1.35178       .     S
C46   C47    1.47471       .     S
C47   C46    1.47471       .     S
C47   H48    0.93059       .     S
H48   C47    0.93059       .     S
C47   O49    1.14042       .     S
O49   C47    1.14042       .     S
H1    C0     0.93059       .     S
C0    H1     0.93059       .     S
O2    C0     1.14042       .     S
C0    O2     1.14042       .     S
H3    C0     0.92989       .     S
C0    H3     0.92989       .     S
O4    C0     1.04268       .     S
C0    O4     1.04268       .     S
C17   C0     1.47471       .     S
C0    C17    1.47471       .     S
O4    H1     0.40917       .     S
H1    O4     0.40917       .     S
H3    O2     0.45923       .     S
O2    H3     0.45923       .     S
C7    O5     1.33984       .     S
O5    C7     1.33984       .     S
C8    O5     1.40552       .     S
O5    C8     1.40552       .     S
C7    N6     1.31418   1_565     S
N6    C7     1.31418   1_545     S
C36   N6     1.33351   1_455     S
N6    C36    1.33351   1_655     S
N19   C7     1.33351       .     S
C7    N19    1.33351       .     S
C9    C8     1.35641       .     S
C8    C9     1.35641       .     S
C11   C8     1.36642   1_545     S
C8    C11    1.36642   1_565     S
H10   C9     0.93002   1_556     S
C9    H10    0.93002   1_554     S
C13   C9     1.38159   1_545     S
C9    C13    1.38159   1_565     S
H12   C11    0.93054       .     S
C11   H12    0.93054       .     S
C15   C11    1.36991       .     S
C11   C15    1.36991       .     S
H14   C13    0.92981   1_556     S
C13   H14    0.92982   1_554     S
C17   C13    1.38520       .     S
C13   C17    1.38520       .     S
H16   C15    0.92968       .     S
C15   H16    0.92968       .     S
C17   C15    1.35178       .     S
C15   C17    1.35178       .     S
C20   O18    1.33984       .     S
O18   C20    1.33984       .     S
C21   O18    1.40552       .     S
O18   C21    1.40552       .     S
C20   N19    1.31418   1_455     S
N19   C20    1.31418   1_655     S
N35   C20    1.33351   1_545     S
C20   N35    1.33351   1_565     S
C22   C21    1.35641       .     S
C21   C22    1.35641       .     S
C24   C21    1.36642   1_655     S
C21   C24    1.36642   1_455     S
H23   C22    0.92997   1_556     S
C22   H23    0.92996   1_554     S
C26   C22    1.38159   1_655     S
C22   C26    1.38159   1_455     S
H25   C24    0.93054       .     S
C24   H25    0.93054       .     S
C28   C24    1.36991       .     S
C24   C28    1.36991       .     S
H27   C26    0.92981   1_556     S
C26   H27    0.92981   1_554     S
C30   C26    1.38520       .     S
C26   C30    1.38520       .     S
H29   C28    0.92968       .     S
C28   H29    0.92968       .     S
C30   C28    1.35178       .     S
C28   C30    1.35178       .     S
C31   C30    1.47470       .     S
C30   C31    1.47470       .     S
H32   C31    0.93059       .     S
C31   H32    0.93059       .     S
O33   C31    1.14042       .     S
C31   O33    1.14042       .     S
C36   O34    1.33984       .     S
O34   C36    1.33984       .     S
C37   O34    1.40552       .     S
O34   C37    1.40552       .     S
C36   N35    1.31418       .     S
N35   C36    1.31418       .     S
C38   C37    1.35641       .     S
C37   C38    1.35641       .     S
C40   C37    1.36642       .     S
C37   C40    1.36642       .     S
H39   C38    0.92993   1_556     S
C38   H39    0.92993   1_554     S
C42   C38    1.38159       .     S
C38   C42    1.38159       .     S
H41   C40    0.93054       .     S
C40   H41    0.93054       .     S
C44   C40    1.36991       .     S
C40   C44    1.36991       .     S
H43   C42    0.92982   1_556     S
C42   H43    0.92982   1_554     S
C46   C42    1.38520       .     S
C42   C46    1.38520       .     S
H45   C44    0.92968       .     S
C44   H45    0.92968       .     S
C46   C44    1.35178       .     S
C44   C46    1.35178       .     S
C47   C46    1.47471       .     S
C46   C47    1.47471       .     S
H48   C47    0.93059       .     S
C47   H48    0.93059       .     S
O49   C47    1.14042       .     S
C47   O49    1.14042       .     S
