data_I
_chemical_name_common  '/data/user2/wty/HOF/MOFDiff/mofdiff/data/test/193-dap_anhydrate'
_cell_length_a 14.97430
_cell_length_b 12.37810
_cell_length_c  6.76487
_cell_angle_alpha 90.00000
_cell_angle_beta  90.00000
_cell_angle_gamma 90.00000
_space_group_name_H-M_alt      'P 1'


loop_
_space_group_symop_operation_xyz
  'x, y, z' 

loop_
_atom_site_label
_atom_site_fract_x
_atom_site_fract_y
_atom_site_fract_z
_atom_site_type_symbol
N0     0.90831  0.45434   0.3681     N
N1     0.79265  0.33342  0.38127     N
N2     0.65404  0.23383  0.40736     N
H3     0.67363  0.16857  0.40277     H
N4     0.55731  0.37007  0.42825     N
N5     0.76758  0.52677  0.38612     N
N6     0.62691  0.60293  0.39997     N
C7     0.81968  0.43709  0.37721     C
C8     0.70356  0.32578   0.3982     C
C9     0.56715  0.26524  0.42508     C
H10    0.51974  0.21697  0.43407     H
C11    0.64353  0.41019  0.41214     C
C12    0.67887  0.51535  0.40578     C
H13    0.93862  0.42909   0.2699     H
H14    0.93708  0.47242   0.4771     H
H15    0.57294  0.59934  0.44647     H
H16    0.64628  0.66717  0.38545     H
loop_
_geom_bond_atom_site_label_1
_geom_bond_atom_site_label_2
_geom_bond_distance
_geom_bond_site_symmetry_2
_ccdc_geom_bond_type
N0    C7     1.34565       .     S
C7    N0     1.34565       .     S
N0    H13    0.86313       .     S
H13   N0     0.86313       .     S
N0    H14    0.88284       .     S
H14   N0     0.88284       .     S
N1    C7     1.34584       .     S
C7    N1     1.34584       .     S
N1    C8     1.34230       .     S
C8    N1     1.34230       .     S
N2    H3     0.85997       .     S
H3    N2     0.85997       .     S
N2    C8     1.35983       .     S
C8    N2     1.35983       .     S
N2    C9     1.36324       .     S
C9    N2     1.36324       .     S
N4    C9     1.30611       .     S
C9    N4     1.30611       .     S
N4    C11    1.38759       .     S
C11   N4     1.38759       .     S
N5    C7     1.35814       .     S
C7    N5     1.35814       .     S
N5    C12    1.34247       .     S
C12   N5     1.34247       .     S
N6    C12    1.33497       .     S
C12   N6     1.33497       .     S
N6    H15    0.86836       .     S
H15   N6     0.86836       .     S
N6    H16    0.85210       .     S
H16   N6     0.85210       .     S
C8    C11    1.38152       .     S
C11   C8     1.38152       .     S
C9    H10    0.92989       .     S
H10   C9     0.92989       .     S
C11   C12    1.40580       .     S
C12   C11    1.40580       .     S
C7    N0     1.34565       .     S
N0    C7     1.34565       .     S
H13   N0     0.86313       .     S
N0    H13    0.86313       .     S
H14   N0     0.88284       .     S
N0    H14    0.88284       .     S
C7    N1     1.34584       .     S
N1    C7     1.34584       .     S
C8    N1     1.34230       .     S
N1    C8     1.34230       .     S
H3    N2     0.85997       .     S
N2    H3     0.85997       .     S
C8    N2     1.35983       .     S
N2    C8     1.35983       .     S
C9    N2     1.36324       .     S
N2    C9     1.36324       .     S
C9    N4     1.30611       .     S
N4    C9     1.30611       .     S
C11   N4     1.38759       .     S
N4    C11    1.38759       .     S
C7    N5     1.35814       .     S
N5    C7     1.35814       .     S
C12   N5     1.34247       .     S
N5    C12    1.34247       .     S
C12   N6     1.33497       .     S
N6    C12    1.33497       .     S
H15   N6     0.86836       .     S
N6    H15    0.86836       .     S
H16   N6     0.85210       .     S
N6    H16    0.85210       .     S
C11   C8     1.38152       .     S
C8    C11    1.38152       .     S
H10   C9     0.92989       .     S
C9    H10    0.92989       .     S
C12   C11    1.40580       .     S
C11   C12    1.40580       .     S
