data_I
_chemical_name_common  '/data/user2/wty/HOF/MOFDiff/mofdiff/data/test/193-dap-hof-2'
_cell_length_a 10.72650
_cell_length_b 11.34480
_cell_length_c 11.63270
_cell_angle_alpha 109.61900
_cell_angle_beta  108.62500
_cell_angle_gamma 107.91900
_space_group_name_H-M_alt      'P 1'


loop_
_space_group_symop_operation_xyz
  'x, y, z' 

loop_
_atom_site_label
_atom_site_fract_x
_atom_site_fract_y
_atom_site_fract_z
_atom_site_type_symbol
N0      0.2015   0.3622   0.8057     N
N1      0.1351   0.5365   0.8867     N
H2     0.04883  0.47102  0.86497     H
H3     0.15553  0.62605  0.92398     H
N4      0.4409   0.7446   0.9491     N
N5      0.2565   0.1836   0.7183     N
H6     0.31358  0.15095  0.69371     H
H7     0.17071   0.1248  0.70465     H
N8      0.4325   0.4088   0.7954     N
N9      0.5858   0.6613   0.8878     N
H10    0.66274  0.66172  0.87563     H
C11     0.2358   0.4999   0.8629     C
C12     0.3751   0.5986   0.8942     C
C13     0.3004   0.3238   0.7769     C
C14      0.464   0.5451   0.8555     C
C15     0.5651    0.776   0.9422     C
H16    0.63438  0.86964  0.97225     H
N17     0.1084   0.8092   0.9483     N
N18      0.249   0.8763   0.8451     N
H19    0.31535  0.85748  0.89215     H
H20    0.26286   0.9075  0.78822     H
N21     0.8673   0.8028   0.8915     N
N22     0.0023    0.933   0.6914     N
N23     0.8005    0.883   0.7211     N
H24    0.71232  0.87368  0.71028     H
N25     0.9712   0.7355   0.0483     N
H26    0.89359   0.7344  0.06008     H
C27     0.0169    0.886    0.789     C
C28     0.1268   0.8573   0.8602     C
C29     0.8923   0.8546   0.8082     C
C30      0.982   0.7857     0.96     C
C31     0.8713   0.9284   0.6545     C
H32    0.82986  0.95424  0.58763     H
H33      0.049    0.733    0.106     H
N34     0.3327   0.9356   0.6344     N
N35     0.1907   0.6911   0.2634     N
N36     0.0909   0.8349    0.465     N
H37    0.06947  0.87908  0.52817     H
H38    0.02137  0.78005  0.37823     H
N39     0.5213   0.8839   0.5909     N
N40     0.4232   0.7211    0.346     N
H41    0.50182  0.71162  0.34671     H
N42     0.5693    0.036   0.8084     N
H43    0.66155  0.06173  0.82173     H
C44     0.2289   0.8511    0.501     C
C45     0.4724   0.9496   0.6722     C
C46     0.2704   0.7832   0.4046     C
C47     0.4147   0.8034   0.4577     C
C48     0.2875    0.657   0.2343     C
H49    0.26477  0.59366  0.14385     H
H50      0.553    0.094    0.862     H
loop_
_geom_bond_atom_site_label_1
_geom_bond_atom_site_label_2
_geom_bond_distance
_geom_bond_site_symmetry_2
_ccdc_geom_bond_type
H3    N17    2.23514       .     S
N17   H3     2.23514       .     S
H6    N34    2.39867   1_545     S
N34   H6     2.39867   1_565     S
H7    N22    2.28033   1_545     S
N22   H7     2.28033   1_565     S
H10   N21    2.18910       .     S
N21   H10    2.18910       .     S
H19   N4     2.22565       .     S
N4    H19    2.22565       .     S
H20   N34    2.22641       .     S
N34   H20    2.22641       .     S
H24   N39    2.13941       .     S
N39   H24    2.13941       .     S
H33   N35    2.26718       .     S
N35   H33    2.26718       .     S
H37   N22    2.20541       .     S
N22   H37    2.20541       .     S
N0    C11    1.34553       .     S
C11   N0     1.34553       .     S
N0    C13    1.35677       .     S
C13   N0     1.35677       .     S
N1    H2     0.87951       .     S
H2    N1     0.87951       .     S
N1    H3     0.88014       .     S
H3    N1     0.88014       .     S
N1    C11    1.34373       .     S
C11   N1     1.34373       .     S
N4    C12    1.38991       .     S
C12   N4     1.38991       .     S
N4    C15    1.30524       .     S
C15   N4     1.30524       .     S
N5    H6     0.87987       .     S
H6    N5     0.87987       .     S
N5    H7     0.88024       .     S
H7    N5     0.88024       .     S
N5    C13    1.34990       .     S
C13   N5     1.34990       .     S
N8    C13    1.34502       .     S
C13   N8     1.34502       .     S
N8    C14    1.34001       .     S
C14   N8     1.34001       .     S
N9    H10    0.87968       .     S
H10   N9     0.87968       .     S
N9    C14    1.37110       .     S
C14   N9     1.37110       .     S
N9    C15    1.36293       .     S
C15   N9     1.36293       .     S
C11   C12    1.40292       .     S
C12   C11    1.40292       .     S
C12   C14    1.38825       .     S
C14   C12    1.38825       .     S
C15   H16    0.94968       .     S
H16   C15    0.94968       .     S
N17   C28    1.35111       .     S
C28   N17    1.35111       .     S
N17   C30    1.35930   1_455     S
C30   N17    1.35930   1_655     S
N18   H19    0.88025       .     S
H19   N18    0.88025       .     S
N18   H20    0.87916       .     S
H20   N18    0.87916       .     S
N18   C28    1.33944       .     S
C28   N18    1.33944       .     S
N21   C29    1.34448       .     S
C29   N21    1.34448       .     S
N21   C30    1.34565       .     S
C30   N21    1.34565       .     S
N22   C27    1.39363       .     S
C27   N22    1.39363       .     S
N22   C31    1.30998   1_455     S
C31   N22    1.30998   1_655     S
N23   H24    0.88043       .     S
H24   N23    0.88043       .     S
N23   C29    1.37010       .     S
C29   N23    1.37010       .     S
N23   C31    1.35843       .     S
C31   N23    1.35843       .     S
N25   H26    0.88294       .     S
H26   N25    0.88294       .     S
N25   C30    1.34947   1_554     S
C30   N25    1.34947   1_556     S
N25   H33    0.90405   1_655     S
H33   N25    0.90405   1_455     S
C27   C28    1.40545       .     S
C28   C27    1.40545       .     S
C27   C29    1.38355   1_455     S
C29   C27    1.38355   1_655     S
C31   H32    0.94925       .     S
H32   C31    0.94925       .     S
N34   C44    1.34439       .     S
C44   N34    1.34439       .     S
N34   C45    1.36008       .     S
C45   N34    1.36008       .     S
N35   C46    1.38616       .     S
C46   N35    1.38616       .     S
N35   C48    1.31382       .     S
C48   N35    1.31382       .     S
N36   H37    0.88062       .     S
H37   N36    0.88062       .     S
N36   H38    0.87981       .     S
H38   N36    0.87981       .     S
N36   C44    1.33614       .     S
C44   N36    1.33614       .     S
N39   C45    1.34505       .     S
C45   N39    1.34505       .     S
N39   C47    1.34828       .     S
C47   N39    1.34828       .     S
N40   H41    0.88021       .     S
H41   N40    0.88021       .     S
N40   C47    1.37179       .     S
C47   N40    1.37179       .     S
N40   C48    1.35719       .     S
C48   N40    1.35719       .     S
N42   H43    0.88445       .     S
H43   N42    0.88445       .     S
N42   C45    1.35266   1_545     S
C45   N42    1.35266   1_565     S
N42   H50    0.84689       .     S
H50   N42    0.84689       .     S
C44   C46    1.41380       .     S
C46   C44    1.41380       .     S
C46   C47    1.38052       .     S
C47   C46    1.38052       .     S
C48   H49    0.95052       .     S
H49   C48    0.95052       .     S
N17   H3     2.23514       .     S
H3    N17    2.23514       .     S
N34   H6     2.39867   1_565     S
H6    N34    2.39867   1_545     S
N22   H7     2.28033   1_565     S
H7    N22    2.28033   1_545     S
N21   H10    2.18910       .     S
H10   N21    2.18910       .     S
N4    H19    2.22565       .     S
H19   N4     2.22565       .     S
N34   H20    2.22641       .     S
H20   N34    2.22641       .     S
N39   H24    2.13941       .     S
H24   N39    2.13941       .     S
N35   H33    2.26718       .     S
H33   N35    2.26718       .     S
N22   H37    2.20541       .     S
H37   N22    2.20541       .     S
C11   N0     1.34553       .     S
N0    C11    1.34553       .     S
C13   N0     1.35677       .     S
N0    C13    1.35677       .     S
H2    N1     0.87951       .     S
N1    H2     0.87951       .     S
H3    N1     0.88014       .     S
N1    H3     0.88014       .     S
C11   N1     1.34373       .     S
N1    C11    1.34373       .     S
C12   N4     1.38991       .     S
N4    C12    1.38991       .     S
C15   N4     1.30524       .     S
N4    C15    1.30524       .     S
H6    N5     0.87987       .     S
N5    H6     0.87987       .     S
H7    N5     0.88024       .     S
N5    H7     0.88024       .     S
C13   N5     1.34990       .     S
N5    C13    1.34990       .     S
C13   N8     1.34502       .     S
N8    C13    1.34502       .     S
C14   N8     1.34001       .     S
N8    C14    1.34001       .     S
H10   N9     0.87968       .     S
N9    H10    0.87968       .     S
C14   N9     1.37110       .     S
N9    C14    1.37110       .     S
C15   N9     1.36293       .     S
N9    C15    1.36293       .     S
C12   C11    1.40292       .     S
C11   C12    1.40292       .     S
C14   C12    1.38825       .     S
C12   C14    1.38825       .     S
H16   C15    0.94968       .     S
C15   H16    0.94968       .     S
C28   N17    1.35111       .     S
N17   C28    1.35111       .     S
C30   N17    1.35930   1_655     S
N17   C30    1.35930   1_455     S
H19   N18    0.88025       .     S
N18   H19    0.88025       .     S
H20   N18    0.87916       .     S
N18   H20    0.87916       .     S
C28   N18    1.33944       .     S
N18   C28    1.33944       .     S
C29   N21    1.34448       .     S
N21   C29    1.34448       .     S
C30   N21    1.34565       .     S
N21   C30    1.34565       .     S
C27   N22    1.39363       .     S
N22   C27    1.39363       .     S
C31   N22    1.30998   1_655     S
N22   C31    1.30998   1_455     S
H24   N23    0.88043       .     S
N23   H24    0.88043       .     S
C29   N23    1.37010       .     S
N23   C29    1.37010       .     S
C31   N23    1.35843       .     S
N23   C31    1.35843       .     S
H26   N25    0.88294       .     S
N25   H26    0.88294       .     S
C30   N25    1.34947   1_556     S
N25   C30    1.34947   1_554     S
H33   N25    0.90405   1_455     S
N25   H33    0.90405   1_655     S
C28   C27    1.40545       .     S
C27   C28    1.40545       .     S
C29   C27    1.38355   1_655     S
C27   C29    1.38355   1_455     S
H32   C31    0.94925       .     S
C31   H32    0.94925       .     S
C44   N34    1.34439       .     S
N34   C44    1.34439       .     S
C45   N34    1.36008       .     S
N34   C45    1.36008       .     S
C46   N35    1.38616       .     S
N35   C46    1.38616       .     S
C48   N35    1.31382       .     S
N35   C48    1.31382       .     S
H37   N36    0.88062       .     S
N36   H37    0.88062       .     S
H38   N36    0.87981       .     S
N36   H38    0.87981       .     S
C44   N36    1.33614       .     S
N36   C44    1.33614       .     S
C45   N39    1.34505       .     S
N39   C45    1.34505       .     S
C47   N39    1.34828       .     S
N39   C47    1.34828       .     S
H41   N40    0.88021       .     S
N40   H41    0.88021       .     S
C47   N40    1.37179       .     S
N40   C47    1.37179       .     S
C48   N40    1.35719       .     S
N40   C48    1.35719       .     S
H43   N42    0.88445       .     S
N42   H43    0.88445       .     S
C45   N42    1.35266   1_565     S
N42   C45    1.35266   1_545     S
H50   N42    0.84689       .     S
N42   H50    0.84689       .     S
C46   C44    1.41380       .     S
C44   C46    1.41380       .     S
C47   C46    1.38052       .     S
C46   C47    1.38052       .     S
H49   C48    0.95052       .     S
C48   H49    0.95052       .     S
