data_I
_chemical_name_common  '/data/user2/wty/HOF/MOFDiff/mofdiff/data/test/193-dap-hof-1'
_cell_length_a 18.88450
_cell_length_b 18.88450
_cell_length_c 10.77860
_cell_angle_alpha 90.00000
_cell_angle_beta  90.00000
_cell_angle_gamma 120.00000
_space_group_name_H-M_alt      'P 1'


loop_
_space_group_symop_operation_xyz
  'x, y, z' 

loop_
_atom_site_label
_atom_site_fract_x
_atom_site_fract_y
_atom_site_fract_z
_atom_site_type_symbol
N0      0.1948  0.42627  0.67274     N
H1     0.22267  0.41687  0.72936     H
H2     0.15427  0.43387  0.69506     H
N3     0.27659  0.41706  0.52193     N
N4     0.10817  0.46011  0.45909     N
N5     0.26636  0.44177  0.30367     N
N6     0.15591  0.47114  0.26601     N
H7     0.16028   0.4795  0.18535     H
N8     0.36142   0.4098  0.37788     N
C9     0.21401    0.429  0.55304     C
C10    0.17291  0.44428  0.45769     C
C11    0.29804  0.42243  0.40086     C
C12    0.20294  0.45095  0.33875     C
C13    0.10115   0.4757  0.34321     C
H14    0.06151  0.48901  0.31523     H
H15     0.3817   0.3919    0.439     H
H16     0.3701   0.4034    0.302     H
loop_
_geom_bond_atom_site_label_1
_geom_bond_atom_site_label_2
_geom_bond_distance
_geom_bond_site_symmetry_2
_ccdc_geom_bond_type
N0    H1     0.87999       .     S
H1    N0     0.87999       .     S
N0    H2     0.87986       .     S
H2    N0     0.87986       .     S
N0    C9     1.33423       .     S
C9    N0     1.33423       .     S
N3    C9     1.35144       .     S
C9    N3     1.35144       .     S
N3    C11    1.35507       .     S
C11   N3     1.35507       .     S
N4    C10    1.39635       .     S
C10   N4     1.39635       .     S
N4    C13    1.30512       .     S
C13   N4     1.30512       .     S
N5    C11    1.34433       .     S
C11   N5     1.34433       .     S
N5    C12    1.34723       .     S
C12   N5     1.34723       .     S
N6    H7     0.88009       .     S
H7    N6     0.88009       .     S
N6    C12    1.37386       .     S
C12   N6     1.37386       .     S
N6    C13    1.36318       .     S
C13   N6     1.36318       .     S
N8    C11    1.35510       .     S
C11   N8     1.35510       .     S
N8    H15    0.90796       .     S
H15   N8     0.90796       .     S
N8    H16    0.85453       .     S
H16   N8     0.85453       .     S
C9    C10    1.40210       .     S
C10   C9     1.40210       .     S
C10   C12    1.38188       .     S
C12   C10    1.38188       .     S
C13   H14    0.95009       .     S
H14   C13    0.95009       .     S
H1    N0     0.87999       .     S
N0    H1     0.87999       .     S
H2    N0     0.87986       .     S
N0    H2     0.87986       .     S
C9    N0     1.33423       .     S
N0    C9     1.33423       .     S
C9    N3     1.35144       .     S
N3    C9     1.35144       .     S
C11   N3     1.35507       .     S
N3    C11    1.35507       .     S
C10   N4     1.39635       .     S
N4    C10    1.39635       .     S
C13   N4     1.30512       .     S
N4    C13    1.30512       .     S
C11   N5     1.34433       .     S
N5    C11    1.34433       .     S
C12   N5     1.34723       .     S
N5    C12    1.34723       .     S
H7    N6     0.88009       .     S
N6    H7     0.88009       .     S
C12   N6     1.37386       .     S
N6    C12    1.37386       .     S
C13   N6     1.36318       .     S
N6    C13    1.36318       .     S
C11   N8     1.35510       .     S
N8    C11    1.35510       .     S
H15   N8     0.90796       .     S
N8    H15    0.90796       .     S
H16   N8     0.85453       .     S
N8    H16    0.85453       .     S
C10   C9     1.40210       .     S
C9    C10    1.40210       .     S
C12   C10    1.38188       .     S
C10   C12    1.38188       .     S
H14   C13    0.95009       .     S
C13   H14    0.95009       .     S
