data_I
_chemical_name_common  '/data/user2/wty/HOF/MOFDiff/mofdiff/data/test/194-aniline_fju-360'
_cell_length_a 30.67120
_cell_length_b  7.15340
_cell_length_c 29.14400
_cell_angle_alpha 90.00000
_cell_angle_beta  111.47800
_cell_angle_gamma 90.00000
_space_group_name_H-M_alt      'P 1'


loop_
_space_group_symop_operation_xyz
  'x, y, z' 

loop_
_atom_site_label
_atom_site_fract_x
_atom_site_fract_y
_atom_site_fract_z
_atom_site_type_symbol
N0      0.2207   0.5049   0.1811     N
H1       0.225    0.507   0.1529     H
H2      0.1935   0.5386   0.1822     H
N3     0.20063   0.2934  0.41217     N
H4      0.1962   0.2853   0.4403     H
H5      0.1905   0.2038   0.3901     H
N6     0.29577   0.3997  0.22244     N
H7      0.3016   0.3998    0.195     H
H8      0.3176   0.3648   0.2503     H
N9     0.23761   0.5734   0.4352     N
H10     0.2336   0.5683   0.4636     H
H11      0.252   0.6698   0.4284     H
C12    0.24602   0.4497  0.26856     C
C13    0.20309   0.3881  0.26859     C
H14     0.1792   0.3501   0.2387     H
C15    0.19538   0.3826  0.31298     C
H16     0.1666   0.3366   0.3136     H
C17    0.25497   0.4511  0.22172     C
C18       0.23   0.4448  0.35608     C
C19    0.28103   0.5117  0.31194     C
H20     0.3104   0.5527   0.3116     H
C21    0.27259   0.5127  0.35542     C
H22     0.2957   0.5594   0.3848     H
C23    0.22218   0.4382  0.40323     C
C24     0.4125   0.7523   0.2925     C
C25     0.4352   0.6791   0.2631     C
H26     0.4422   0.5494   0.2644     H
C27     0.4476    0.796   0.2317     C
H28     0.4632   0.7457   0.2116     H
C29     0.4374    0.985   0.2298     C
H30     0.4459   0.0652   0.2084     H
C31     0.4147   0.0587   0.2592     C
H32     0.4077   0.1884   0.2579     H
C33     0.4023    0.942   0.2906     C
H34     0.3867   0.9922   0.3107     H
N35     0.4038    0.674   0.3319     N
H36     0.4133   0.5598   0.3416     H
H37     0.3888   0.7389   0.3471     H
loop_
_geom_bond_atom_site_label_1
_geom_bond_atom_site_label_2
_geom_bond_distance
_geom_bond_site_symmetry_2
_ccdc_geom_bond_type
N0    H1     0.87889       .     S
H1    N0     0.87889       .     S
N0    H2     0.88018       .     S
H2    N0     0.88018       .     S
N0    C17    1.32029       .     S
C17   N0     1.32029       .     S
N3    H4     0.88062       .     S
H4    N3     0.88062       .     S
N3    H5     0.88018       .     S
H5    N3     0.88018       .     S
N3    C23    1.30529       .     S
C23   N3     1.30529       .     S
N6    H7     0.88104       .     S
H7    N6     0.88104       .     S
N6    H8     0.87852       .     S
H8    N6     0.87852       .     S
N6    C17    1.29706       .     S
C17   N6     1.29706       .     S
N9    H10    0.88095       .     S
H10   N9     0.88095       .     S
N9    H11    0.87958       .     S
H11   N9     0.87958       .     S
N9    C23    1.30559       .     S
C23   N9     1.30559       .     S
C12   C13    1.38880       .     S
C13   C12    1.38880       .     S
C12   C17    1.48774       .     S
C17   C12    1.48774       .     S
C12   C19    1.39785       .     S
C19   C12    1.39785       .     S
C13   H14    0.94985       .     S
H14   C13    0.94985       .     S
C13   C15    1.39827       .     S
C15   C13    1.39827       .     S
C15   H16    0.94841       .     S
H16   C15    0.94841       .     S
C15   C18    1.38801       .     S
C18   C15    1.38801       .     S
C18   C21    1.40038       .     S
C21   C18    1.40038       .     S
C18   C23    1.47965       .     S
C23   C18    1.47965       .     S
C19   H20    0.95085       .     S
H20   C19    0.95085       .     S
C19   C21    1.38312       .     S
C21   C19    1.38312       .     S
C21   H22    0.95013       .     S
H22   C21    0.95013       .     S
C24   C25    1.38923       .     S
C25   C24    1.38923       .     S
C24   C33    1.38914       .     S
C33   C24    1.38914       .     S
C24   N35    1.38847       .     S
N35   C24    1.38847       .     S
C25   H26    0.94994       .     S
H26   C25    0.94994       .     S
C25   C27    1.39149       .     S
C27   C25    1.39149       .     S
C27   H28    0.95226       .     S
H28   C27    0.95226       .     S
C27   C29    1.38425       .     S
C29   C27    1.38425       .     S
C29   H30    0.95139   1_565     S
H30   C29    0.95139   1_545     S
C29   C31    1.39058   1_565     S
C31   C29    1.39058   1_545     S
C31   H32    0.94994       .     S
H32   C31    0.94994       .     S
C31   C33    1.39063   1_545     S
C33   C31    1.39063   1_565     S
C33   H34    0.95199       .     S
H34   C33    0.95199       .     S
N35   H36    0.87855       .     S
H36   N35    0.87855       .     S
N35   H37    0.87902       .     S
H37   N35    0.87902       .     S
H1    N0     0.87889       .     S
N0    H1     0.87889       .     S
H2    N0     0.88018       .     S
N0    H2     0.88018       .     S
C17   N0     1.32029       .     S
N0    C17    1.32029       .     S
H4    N3     0.88062       .     S
N3    H4     0.88062       .     S
H5    N3     0.88018       .     S
N3    H5     0.88018       .     S
C23   N3     1.30529       .     S
N3    C23    1.30529       .     S
H7    N6     0.88104       .     S
N6    H7     0.88104       .     S
H8    N6     0.87852       .     S
N6    H8     0.87852       .     S
C17   N6     1.29706       .     S
N6    C17    1.29706       .     S
H10   N9     0.88095       .     S
N9    H10    0.88095       .     S
H11   N9     0.87958       .     S
N9    H11    0.87958       .     S
C23   N9     1.30559       .     S
N9    C23    1.30559       .     S
C13   C12    1.38880       .     S
C12   C13    1.38880       .     S
C17   C12    1.48774       .     S
C12   C17    1.48774       .     S
C19   C12    1.39785       .     S
C12   C19    1.39785       .     S
H14   C13    0.94985       .     S
C13   H14    0.94985       .     S
C15   C13    1.39827       .     S
C13   C15    1.39827       .     S
H16   C15    0.94841       .     S
C15   H16    0.94841       .     S
C18   C15    1.38801       .     S
C15   C18    1.38801       .     S
C21   C18    1.40038       .     S
C18   C21    1.40038       .     S
C23   C18    1.47965       .     S
C18   C23    1.47965       .     S
H20   C19    0.95085       .     S
C19   H20    0.95085       .     S
C21   C19    1.38312       .     S
C19   C21    1.38312       .     S
H22   C21    0.95013       .     S
C21   H22    0.95013       .     S
C25   C24    1.38923       .     S
C24   C25    1.38923       .     S
C33   C24    1.38914       .     S
C24   C33    1.38914       .     S
N35   C24    1.38847       .     S
C24   N35    1.38847       .     S
H26   C25    0.94994       .     S
C25   H26    0.94994       .     S
C27   C25    1.39149       .     S
C25   C27    1.39149       .     S
H28   C27    0.95226       .     S
C27   H28    0.95226       .     S
C29   C27    1.38425       .     S
C27   C29    1.38425       .     S
H30   C29    0.95139   1_545     S
C29   H30    0.95139   1_565     S
C31   C29    1.39058   1_545     S
C29   C31    1.39058   1_565     S
H32   C31    0.94994       .     S
C31   H32    0.94994       .     S
C33   C31    1.39063   1_565     S
C31   C33    1.39063   1_545     S
H34   C33    0.95199       .     S
C33   H34    0.95199       .     S
H36   N35    0.87855       .     S
N35   H36    0.87855       .     S
H37   N35    0.87902       .     S
N35   H37    0.87902       .     S
