data_I
_chemical_name_common  '/data/user2/wty/HOF/MOFDiff/mofdiff/data/test/194-fju-360'
_cell_length_a 30.71120
_cell_length_b  7.17060
_cell_length_c 29.17850
_cell_angle_alpha 90.00000
_cell_angle_beta  110.27200
_cell_angle_gamma 90.00000
_space_group_name_H-M_alt      'P 1'


loop_
_space_group_symop_operation_xyz
  'x, y, z' 

loop_
_atom_site_label
_atom_site_fract_x
_atom_site_fract_y
_atom_site_fract_z
_atom_site_type_symbol
N0     0.79783   0.7102  0.58605     N
H1     0.80181   0.7189  0.55837     H
H2     0.80783  0.79688   0.6075     H
N3     0.76076   0.4299  0.56433     N
H4     0.76412  0.43395  0.53629     H
H5     0.74694  0.33659  0.57181     H
N6      0.7803    0.499  0.81806     N
H7     0.77647  0.49829  0.84588     H
H8     0.80659  0.46654  0.81611     H
N9     0.70539   0.6002  0.77911     N
H10    0.69997  0.60168  0.80612     H
H11    0.68399  0.63225  0.75232     H
C12     0.7971   0.6126  0.72996     C
H13    0.82056  0.65004  0.75838     H
C14    0.75448   0.5505   0.7317     C
C15     0.7689   0.5568  0.64303     C
C16      0.804   0.6175  0.68542     C
H17     0.8319  0.66116  0.68374     H
C18     0.7268   0.4922   0.6451     C
H19    0.70368  0.44975  0.61702     H
C20     0.7463   0.5492   0.7788     C
C21     0.7766   0.5653  0.59549     C
C22     0.7196   0.4917   0.6892     C
H23    0.69133  0.45171  0.69062     H
O24     0.5875   0.3114   0.7485     O
H25    0.60924   0.3904  0.75946     H
H26    0.59291  0.20663  0.76298     H
O27     0.5834   0.9153   0.7421     O
H28    0.59188  0.86832  0.77057     H
H29    0.55579  0.87997  0.72643     H
S30    0.68696   0.9613  0.54525     S
O31    0.68097   0.7914  0.57152     O
O32    0.71141   0.1019  0.58101     O
O33     0.7015   0.9353   0.5068     O
O34     0.7144    0.932   0.5896     O
O35     0.7014    0.813   0.5086     O
O36      0.724   0.1217    0.526     O
S37    0.36722   0.6454  0.64519     S
O38    0.42235    0.289   0.3991     O
O39    0.32083   0.5725  0.63592     O
N40    0.43104   0.3559  0.48874     N
H41    0.41261  0.35646  0.45883     H
N42     0.4739   0.2994  0.50083     N
O43    0.36701   0.8454   0.6383     O
C44     0.5594   0.1015   0.4535     C
C45     0.4164   0.4159    0.527     C
C46     0.6053   0.0415   0.4704     C
H47      0.619   0.9987  0.44852     H
C48     0.3859   0.5464   0.5996     C
C49     0.4908   0.2364   0.4675     C
C50     0.3711   0.4867   0.5142     C
H51    0.35157  0.49042  0.48177     H
C52     0.4454   0.4072   0.5757     C
H53    0.47509  0.35756  0.58395     H
C54     0.5383   0.1736   0.4859     C
C55     0.6306   0.0457   0.5202     C
C56     0.4298   0.4726   0.6115     C
H57    0.44911  0.46686   0.6441     H
C58     0.3564   0.5504   0.5509     C
H59    0.32644  0.59678  0.54314     H
C60     0.6089    0.116   0.5528     C
H61    0.62545  0.11906  0.58619     H
C62     0.5648   0.1777   0.5359     C
H63    0.55159  0.22409  0.55788     H
C64     0.4627    0.233    0.414     C
C65     0.4861   0.1555    0.383     C
C66     0.5303   0.0979   0.4009     C
H67     0.5436  0.05269  0.37894     H
O68     0.4001   0.5906  0.69103     O
O69    0.64186   0.8062  0.69393     O
H70    0.63093  0.79658    0.717     H
H71    0.63084   0.9082  0.67987     H
loop_
_geom_bond_atom_site_label_1
_geom_bond_atom_site_label_2
_geom_bond_distance
_geom_bond_site_symmetry_2
_ccdc_geom_bond_type
H5    O32    2.07310       .     S
O32   H5     2.07310       .     S
H5    O36    2.00120       .     S
O36   H5     2.00120       .     S
H11   O69    2.14594       .     S
O69   H11    2.14594       .     S
H26   O27    2.16729   1_545     S
O27   H26    2.16729   1_565     S
H41   O38    1.92930       .     S
O38   H41    1.92930       .     S
H70   O27    2.03289       .     S
O27   H70    2.03289       .     S
N0    H1     0.85998       .     S
H1    N0     0.85998       .     S
N0    H2     0.85975       .     S
H2    N0     0.85975       .     S
N0    C21    1.30575       .     S
C21   N0     1.30575       .     S
N3    H4     0.85988       .     S
H4    N3     0.85988       .     S
N3    H5     0.86003       .     S
H5    N3     0.86003       .     S
N3    C21    1.30363       .     S
C21   N3     1.30363       .     S
N6    H7     0.85963       .     S
H7    N6     0.85963       .     S
N6    H8     0.86089       .     S
H8    N6     0.86089       .     S
N6    C20    1.30510       .     S
C20   N6     1.30510       .     S
N9    H10    0.86014       .     S
H10   N9     0.86014       .     S
N9    H11    0.86011       .     S
H11   N9     0.86011       .     S
N9    C20    1.31157       .     S
C20   N9     1.31157       .     S
C12   H13    0.92995       .     S
H13   C12    0.92995       .     S
C12   C14    1.40006       .     S
C14   C12    1.40006       .     S
C12   C16    1.38779       .     S
C16   C12    1.38779       .     S
C14   C20    1.48026       .     S
C20   C14    1.48026       .     S
C14   C22    1.39376       .     S
C22   C14    1.39376       .     S
C15   C16    1.39907       .     S
C16   C15    1.39907       .     S
C15   C18    1.39428       .     S
C18   C15    1.39428       .     S
C15   C21    1.48698       .     S
C21   C15    1.48698       .     S
C16   H17    0.92935       .     S
H17   C16    0.92935       .     S
C18   H19    0.93005       .     S
H19   C18    0.93005       .     S
C18   C22    1.37908       .     S
C22   C18    1.37908       .     S
C22   H23    0.92879       .     S
H23   C22    0.92879       .     S
O24   H25    0.84911       .     S
H25   O24    0.84911       .     S
O24   H26    0.84963       .     S
H26   O24    0.84963       .     S
O27   H28    0.84940       .     S
H28   O27    0.84940       .     S
O27   H29    0.85063       .     S
H29   O27    0.85063       .     S
S30   O31    1.48436       .     S
O31   S30    1.48436       .     S
S30   O32    1.45811   1_565     S
O32   S30    1.45811   1_545     S
S30   O33    1.35647       .     S
O33   S30    1.35647       .     S
S30   O34    1.29354       .     S
O34   S30    1.29354       .     S
S30   O35    1.67323       .     S
O35   S30    1.67323       .     S
S30   O36    1.83715   1_565     S
O36   S30    1.83715   1_545     S
S30   C55    1.73775   1_565     S
C55   S30    1.73775   1_545     S
O31   O34    1.40481       .     S
O34   O31    1.40481       .     S
O32   O34    1.24078   1_545     S
O34   O32    1.24078   1_565     S
O33   O35    0.87860       .     S
O35   O33    0.87860       .     S
S37   O39    1.45229       .     S
O39   S37    1.45229       .     S
S37   O43    1.44785       .     S
O43   S37    1.44785       .     S
S37   C48    1.76959       .     S
C48   S37    1.76959       .     S
S37   O68    1.42379       .     S
O68   S37    1.42379       .     S
O38   C64    1.22985       .     S
C64   O38    1.22985       .     S
N40   H41    0.86008       .     S
H41   N40    0.86008       .     S
N40   N42    1.30362       .     S
N42   N40    1.30362       .     S
N40   C45    1.40761       .     S
C45   N40    1.40761       .     S
N42   C49    1.33005       .     S
C49   N42    1.33005       .     S
C44   C46    1.39057       .     S
C46   C44    1.39057       .     S
C44   C54    1.41615       .     S
C54   C44    1.41615       .     S
C44   C66    1.48474       .     S
C66   C44    1.48474       .     S
C45   C50    1.40451       .     S
C50   C45    1.40451       .     S
C45   C52    1.39260       .     S
C52   C45    1.39260       .     S
C46   H47    0.93002   1_545     S
H47   C46    0.93002   1_565     S
C46   C55    1.39058       .     S
C55   C46    1.39058       .     S
C48   C56    1.37620       .     S
C56   C48    1.37620       .     S
C48   C58    1.39597       .     S
C58   C48    1.39597       .     S
C49   C54    1.44096       .     S
C54   C49    1.44096       .     S
C49   C64    1.49956       .     S
C64   C49    1.49956       .     S
C50   H51    0.92875       .     S
H51   C50    0.92875       .     S
C50   C58    1.37629       .     S
C58   C50    1.37629       .     S
C52   H53    0.92949       .     S
H53   C52    0.92949       .     S
C52   C56    1.37383       .     S
C56   C52    1.37383       .     S
C54   C62    1.40317       .     S
C62   C54    1.40317       .     S
C55   C60    1.42910       .     S
C60   C55    1.42910       .     S
C56   H57    0.93129       .     S
H57   C56    0.93129       .     S
C58   H59    0.92957       .     S
H59   C58    0.92957       .     S
C60   H61    0.92999       .     S
H61   C60    0.92999       .     S
C60   C62    1.34551       .     S
C62   C60    1.34551       .     S
C62   H63    0.93105       .     S
H63   C62    0.93105       .     S
C64   C65    1.44703       .     S
C65   C64    1.44703       .     S
C65   C66    1.33967       .     S
C66   C65    1.33967       .     S
C66   H67    0.92945       .     S
H67   C66    0.92945       .     S
O69   H70    0.85273       .     S
H70   O69    0.85273       .     S
O69   H71    0.84946       .     S
H71   O69    0.84946       .     S
O32   H5     2.07310       .     S
H5    O32    2.07310       .     S
O36   H5     2.00120       .     S
H5    O36    2.00120       .     S
O69   H11    2.14594       .     S
H11   O69    2.14594       .     S
O27   H26    2.16729   1_565     S
H26   O27    2.16729   1_545     S
O38   H41    1.92930       .     S
H41   O38    1.92930       .     S
O27   H70    2.03289       .     S
H70   O27    2.03289       .     S
H1    N0     0.85998       .     S
N0    H1     0.85998       .     S
H2    N0     0.85975       .     S
N0    H2     0.85975       .     S
C21   N0     1.30575       .     S
N0    C21    1.30575       .     S
H4    N3     0.85988       .     S
N3    H4     0.85988       .     S
H5    N3     0.86003       .     S
N3    H5     0.86003       .     S
C21   N3     1.30363       .     S
N3    C21    1.30363       .     S
H7    N6     0.85963       .     S
N6    H7     0.85963       .     S
H8    N6     0.86089       .     S
N6    H8     0.86089       .     S
C20   N6     1.30510       .     S
N6    C20    1.30510       .     S
H10   N9     0.86014       .     S
N9    H10    0.86014       .     S
H11   N9     0.86011       .     S
N9    H11    0.86011       .     S
C20   N9     1.31157       .     S
N9    C20    1.31157       .     S
H13   C12    0.92995       .     S
C12   H13    0.92995       .     S
C14   C12    1.40006       .     S
C12   C14    1.40006       .     S
C16   C12    1.38779       .     S
C12   C16    1.38779       .     S
C20   C14    1.48026       .     S
C14   C20    1.48026       .     S
C22   C14    1.39376       .     S
C14   C22    1.39376       .     S
C16   C15    1.39907       .     S
C15   C16    1.39907       .     S
C18   C15    1.39428       .     S
C15   C18    1.39428       .     S
C21   C15    1.48698       .     S
C15   C21    1.48698       .     S
H17   C16    0.92935       .     S
C16   H17    0.92935       .     S
H19   C18    0.93005       .     S
C18   H19    0.93005       .     S
C22   C18    1.37908       .     S
C18   C22    1.37908       .     S
H23   C22    0.92879       .     S
C22   H23    0.92879       .     S
H25   O24    0.84911       .     S
O24   H25    0.84911       .     S
H26   O24    0.84963       .     S
O24   H26    0.84963       .     S
H28   O27    0.84940       .     S
O27   H28    0.84940       .     S
H29   O27    0.85063       .     S
O27   H29    0.85063       .     S
O31   S30    1.48436       .     S
S30   O31    1.48436       .     S
O32   S30    1.45811   1_545     S
S30   O32    1.45811   1_565     S
O33   S30    1.35647       .     S
S30   O33    1.35647       .     S
O34   S30    1.29354       .     S
S30   O34    1.29354       .     S
O35   S30    1.67323       .     S
S30   O35    1.67323       .     S
O36   S30    1.83715   1_545     S
S30   O36    1.83715   1_565     S
C55   S30    1.73775   1_545     S
S30   C55    1.73775   1_565     S
O34   O31    1.40481       .     S
O31   O34    1.40481       .     S
O34   O32    1.24078   1_565     S
O32   O34    1.24078   1_545     S
O35   O33    0.87860       .     S
O33   O35    0.87860       .     S
O39   S37    1.45229       .     S
S37   O39    1.45229       .     S
O43   S37    1.44785       .     S
S37   O43    1.44785       .     S
C48   S37    1.76959       .     S
S37   C48    1.76959       .     S
O68   S37    1.42379       .     S
S37   O68    1.42379       .     S
C64   O38    1.22985       .     S
O38   C64    1.22985       .     S
H41   N40    0.86008       .     S
N40   H41    0.86008       .     S
N42   N40    1.30362       .     S
N40   N42    1.30362       .     S
C45   N40    1.40761       .     S
N40   C45    1.40761       .     S
C49   N42    1.33005       .     S
N42   C49    1.33005       .     S
C46   C44    1.39057       .     S
C44   C46    1.39057       .     S
C54   C44    1.41615       .     S
C44   C54    1.41615       .     S
C66   C44    1.48474       .     S
C44   C66    1.48474       .     S
C50   C45    1.40451       .     S
C45   C50    1.40451       .     S
C52   C45    1.39260       .     S
C45   C52    1.39260       .     S
H47   C46    0.93002   1_565     S
C46   H47    0.93002   1_545     S
C55   C46    1.39058       .     S
C46   C55    1.39058       .     S
C56   C48    1.37620       .     S
C48   C56    1.37620       .     S
C58   C48    1.39597       .     S
C48   C58    1.39597       .     S
C54   C49    1.44096       .     S
C49   C54    1.44096       .     S
C64   C49    1.49956       .     S
C49   C64    1.49956       .     S
H51   C50    0.92875       .     S
C50   H51    0.92875       .     S
C58   C50    1.37629       .     S
C50   C58    1.37629       .     S
H53   C52    0.92949       .     S
C52   H53    0.92949       .     S
C56   C52    1.37383       .     S
C52   C56    1.37383       .     S
C62   C54    1.40317       .     S
C54   C62    1.40317       .     S
C60   C55    1.42910       .     S
C55   C60    1.42910       .     S
H57   C56    0.93129       .     S
C56   H57    0.93129       .     S
H59   C58    0.92957       .     S
C58   H59    0.92957       .     S
H61   C60    0.92999       .     S
C60   H61    0.92999       .     S
C62   C60    1.34551       .     S
C60   C62    1.34551       .     S
H63   C62    0.93105       .     S
C62   H63    0.93105       .     S
C65   C64    1.44703       .     S
C64   C65    1.44703       .     S
C66   C65    1.33967       .     S
C65   C66    1.33967       .     S
H67   C66    0.92945       .     S
C66   H67    0.92945       .     S
H70   O69    0.85273       .     S
O69   H70    0.85273       .     S
H71   O69    0.84946       .     S
O69   H71    0.84946       .     S
