data_I
_chemical_name_common  '/data/user2/wty/HOF/MOFDiff/mofdiff/data/test/195'
_cell_length_a 23.28400
_cell_length_b 23.05200
_cell_length_c 14.29850
_cell_angle_alpha 90.00000
_cell_angle_beta  98.46800
_cell_angle_gamma 90.00000
_space_group_name_H-M_alt      'P 1'


loop_
_space_group_symop_operation_xyz
  'x, y, z' 

loop_
_atom_site_label
_atom_site_fract_x
_atom_site_fract_y
_atom_site_fract_z
_atom_site_type_symbol
O0     0.10894  0.26452  0.58579     O
O1     0.14044  0.19733  0.49296     O
H2     0.15879  0.22547  0.47454     H
N3         0.0  0.04418     0.75     N
C4      0.0288  0.07939  0.69247     C
C5     0.01842  0.13786  0.71366     C
C6         0.0  0.98272     0.75     C
C7     0.06404  0.06403  0.62601     C
H8     0.07034  0.02449  0.61176     H
C9     0.04484  0.18176  0.66836     C
H10    0.03856  0.22133  0.68242     H
C11    0.11128  0.21383  0.55914     C
C12     0.0897  0.10827  0.58122     C
H13    0.11395  0.09894  0.53544     H
C14    0.08036   0.1669  0.60256     C
C15    0.98708  0.89236  0.66553     C
H16    0.97835  0.87164  0.60775     H
C17        0.0  0.86248     0.75     C
H18        0.0  0.82127     0.75     H
C19    0.98689  0.95245   0.6652     C
H20    0.97784  0.97298  0.60729     H
O21    0.89106  0.26452  0.91421     O
O22    0.85956  0.19733  0.00704     O
H23    0.84122  0.22547  0.02546     H
C24     0.9712  0.07939  0.80753     C
C25    0.98158  0.13786  0.78634     C
C26    0.93596  0.06403  0.87399     C
H27    0.92966  0.02449  0.88824     H
C28    0.95516  0.18176  0.83164     C
H29    0.96144  0.22133  0.81758     H
C30    0.88872  0.21383  0.94086     C
C31     0.9103  0.10827  0.91878     C
H32    0.88605  0.09894  0.96456     H
C33    0.91964   0.1669  0.89744     C
C34    0.01292  0.89236  0.83447     C
H35    0.02165  0.87164  0.89225     H
C36    0.01311  0.95245   0.8348     C
H37    0.02216  0.97298  0.89271     H
O38    0.96356  0.30055  0.51883     O
H39    0.94515  0.27297  0.53888     H
O40    0.23314  0.32604  0.98824     O
H41    0.25177  0.29887  0.96754     H
O42    0.20825   0.2554  0.08164     O
O43    0.98878  0.23739  0.41375     O
N44    0.09359  0.46471  0.26455     N
C45    0.12308  0.43224  0.20412     C
C46    0.03273    0.439  0.39011     C
H47    0.02588  0.47785   0.4077     H
C48    0.14238  0.33189  0.17212     C
H49    0.13781  0.29165  0.18341     H
C50    0.07893  0.36917    0.296     C
C51    0.01914  0.33523  0.40695     C
C52    0.18299  0.40943  0.08851     C
H53    0.20623  0.42108  0.04249     H
C54    0.20745  0.30656  0.05649     C
C55    0.05428   0.3232  0.33829     C
H56    0.06117  0.28432   0.3209     H
C57    0.10548  0.55477  0.35292     C
H58    0.11759  0.53345  0.40923     H
C59    0.09057  0.52604  0.26771     C
C60    0.00901  0.39282  0.43209     C
H61    0.98517  0.40011  0.47931     H
C62     0.0708  0.61751   0.1888     C
H63    0.05913  0.63903  0.13255     H
C64    0.07326  0.55752  0.18546     C
H65    0.06312  0.53788  0.12695     H
C66    0.10262  0.61481  0.35561     C
H67    0.11264  0.63451   0.4141     H
C68    0.17608  0.35038   0.1059     C
C69    0.15652  0.45141  0.13725     C
H70    0.16106  0.49157   0.1254     H
C71    0.08542  0.64616  0.27442     C
H72    0.08356  0.68729  0.27694     H
C73    0.06725  0.42649  0.32065     C
C74    0.11533  0.37278  0.22182     C
C75    0.98916  0.28747  0.44818     C
O76    0.33598   0.1465  0.47956     O
H77    0.35265  0.17573  0.46101     H
O78    0.30247  0.21492  0.56684     O
O79    0.07262  0.15504  0.01812     O
H80    0.05599  0.18446  0.03169     H
O81    0.09898  0.22014   0.9172     O
N82    0.20221  0.99822   0.7511     N
C83    0.17686  0.03422  0.81031     C
C84    0.16069  0.13681  0.83207     C
H85    0.16528  0.17608  0.81445     H
C86    0.12954  0.12294  0.90503     C
C87     0.2186   0.0909  0.70846     C
C88    0.25706  0.01603  0.61452     C
H89    0.26088  0.97634  0.59865     H
C90    0.09931  0.16925  0.94893     C
C91    0.28056  0.05927  0.56559     C
H92    0.30118  0.04914  0.51536     H
C93     0.2747  0.11818  0.58841     C
C94    0.25728  0.90757  0.76358     C
H95    0.29219  0.92905  0.76456     H
C96    0.24249  0.13435  0.65862     C
H97     0.2369  0.17411  0.67227     H
C98    0.20413  0.93599  0.75579     C
C99    0.12482  0.06468  0.93241     C
H100   0.10485  0.05604  0.98406     H
C101   0.18481  0.09242  0.78576     C
C102   0.22749  0.03253  0.68806     C
C103   0.14814   0.0199  0.88687     C
H104   0.14495  0.98079  0.90643     H
C105   0.30502  0.16421  0.54302     C
C106   0.20818  0.81657  0.76995     C
H107   0.20944  0.77555  0.77623     H
C108   0.15619  0.84517   0.7609     C
H109   0.12138  0.82358  0.76023     H
C110   0.15331  0.90506   0.7527     C
H111    0.1169  0.92442  0.74502     H
C112   0.25884  0.84772  0.76989     C
H113   0.29492  0.82794  0.77421     H
loop_
_geom_bond_atom_site_label_1
_geom_bond_atom_site_label_2
_geom_bond_distance
_geom_bond_site_symmetry_2
_ccdc_geom_bond_type
O0    C11    1.23276       .     S
C11   O0     1.23276       .     S
O1    H2     0.84015       .     S
H2    O1     0.84015       .     S
O1    C11    1.30012       .     S
C11   O1     1.30012       .     S
N3    C4     1.39556       .     S
C4    N3     1.39556       .     S
N3    C6     1.41678   1_545     S
C6    N3     1.41677   1_565     S
N3    C24    1.39556   1_455     S
C24   N3     1.39556   1_655     S
C4    C5     1.41014       .     S
C5    C4     1.41014       .     S
C4    C7     1.38972       .     S
C7    C4     1.38972       .     S
C5    C9     1.39263       .     S
C9    C5     1.39263       .     S
C5    C25    1.44163   1_455     S
C25   C5     1.44163   1_655     S
C6    C19    1.39329   1_455     S
C19   C6     1.39329   1_655     S
C6    C36    1.39329       .     S
C36   C6     1.39329       .     S
C7    H8     0.95007       .     S
H8    C7     0.95007       .     S
C7    C12    1.38558       .     S
C12   C7     1.38558       .     S
C9    H10    0.95000       .     S
H10   C9     0.95000       .     S
C9    C14    1.38409       .     S
C14   C9     1.38409       .     S
C11   C14    1.48518       .     S
C14   C11    1.48518       .     S
C12   H13    0.94995       .     S
H13   C12    0.94995       .     S
C12   C14    1.40947       .     S
C14   C12    1.40947       .     S
C15   H16    0.95003       .     S
H16   C15    0.95003       .     S
C15   C17    1.38445   1_655     S
C17   C15    1.38445   1_455     S
C15   C19    1.38521       .     S
C19   C15    1.38521       .     S
C17   H18    0.94997       .     S
H18   C17    0.94997       .     S
C17   C34    1.38445       .     S
C34   C17    1.38445       .     S
C19   H20    0.95006       .     S
H20   C19    0.95006       .     S
O21   C30    1.23276       .     S
C30   O21    1.23276       .     S
O22   H23    0.84002       .     S
H23   O22    0.84002       .     S
O22   C30    1.30012   1_554     S
C30   O22    1.30012   1_556     S
C24   C25    1.41014       .     S
C25   C24    1.41014       .     S
C24   C26    1.38972       .     S
C26   C24    1.38972       .     S
C25   C28    1.39263       .     S
C28   C25    1.39263       .     S
C26   H27    0.95007       .     S
H27   C26    0.95007       .     S
C26   C31    1.38558       .     S
C31   C26    1.38558       .     S
C28   H29    0.95000       .     S
H29   C28    0.95000       .     S
C28   C33    1.38409       .     S
C33   C28    1.38409       .     S
C30   C33    1.48518       .     S
C33   C30    1.48518       .     S
C31   H32    0.94995       .     S
H32   C31    0.94995       .     S
C31   C33    1.40947       .     S
C33   C31    1.40947       .     S
C34   H35    0.95003       .     S
H35   C34    0.95003       .     S
C34   C36    1.38521       .     S
C36   C34    1.38521       .     S
C36   H37    0.95006       .     S
H37   C36    0.95006       .     S
O38   H39    0.84044       .     S
H39   O38    0.84044       .     S
O38   C75    1.28220       .     S
C75   O38    1.28220       .     S
O40   H41    0.84016       .     S
H41   O40    0.84016       .     S
O40   C54    1.29757   1_556     S
C54   O40    1.29757   1_554     S
O42   C54    1.23229       .     S
C54   O42    1.23229       .     S
O43   C75    1.25455       .     S
C75   O43    1.25455       .     S
N44   C45    1.39752       .     S
C45   N44    1.39752       .     S
N44   C59    1.41658       .     S
C59   N44    1.41658       .     S
N44   C73    1.39309       .     S
C73   N44    1.39309       .     S
C45   C69    1.39104       .     S
C69   C45    1.39104       .     S
C45   C74    1.41025       .     S
C74   C45    1.41025       .     S
C46   H47    0.95003       .     S
H47   C46    0.95003       .     S
C46   C60    1.37703       .     S
C60   C46    1.37703       .     S
C46   C73    1.39667       .     S
C73   C46    1.39667       .     S
C48   H49    0.95021       .     S
H49   C48    0.95021       .     S
C48   C68    1.38301       .     S
C68   C48    1.38301       .     S
C48   C74    1.38636       .     S
C74   C48    1.38636       .     S
C50   C55    1.38573       .     S
C55   C50    1.38573       .     S
C50   C73    1.40441       .     S
C73   C50    1.40441       .     S
C50   C74    1.45431       .     S
C74   C50    1.45431       .     S
C51   C55    1.39525       .     S
C55   C51    1.39525       .     S
C51   C60    1.40437       .     S
C60   C51    1.40437       .     S
C51   C75    1.47246   1_455     S
C75   C51    1.47246   1_655     S
C52   H53    0.95015       .     S
H53   C52    0.95015       .     S
C52   C68    1.39729       .     S
C68   C52    1.39729       .     S
C52   C69    1.38872       .     S
C69   C52    1.38872       .     S
C54   C68    1.48492       .     S
C68   C54    1.48492       .     S
C55   H56    0.95005       .     S
H56   C55    0.95005       .     S
C57   H58    0.94997       .     S
H58   C57    0.94997       .     S
C57   C59    1.38528       .     S
C59   C57    1.38528       .     S
C57   C66    1.38645       .     S
C66   C57    1.38645       .     S
C59   C64    1.39016       .     S
C64   C59    1.39016       .     S
C60   H61    0.95006   1_455     S
H61   C60    0.95006   1_655     S
C62   H63    0.94997       .     S
H63   C62    0.94997       .     S
C62   C64    1.38519       .     S
C64   C62    1.38519       .     S
C62   C71    1.38855       .     S
C71   C62    1.38855       .     S
C64   H65    0.94998       .     S
H65   C64    0.94998       .     S
C66   H67    0.95007       .     S
H67   C66    0.95007       .     S
C66   C71    1.37601       .     S
C71   C66    1.37601       .     S
C69   H70    0.94985       .     S
H70   C69    0.94985       .     S
C71   H72    0.95004       .     S
H72   C71    0.95004       .     S
O76   H77    0.83985       .     S
H77   O76    0.83985       .     S
O76   C105   1.30473       .     S
C105  O76    1.30473       .     S
O78   C105   1.22146       .     S
C105  O78    1.22146       .     S
O79   H80    0.81832       .     S
H80   O79    0.81832       .     S
O79   C90    1.28581   1_554     S
C90   O79    1.28581   1_556     S
O81   C90    1.25741       .     S
C90   O81    1.25741       .     S
N82   C83    1.37877   1_565     S
C83   N82    1.37877   1_545     S
N82   C98    1.43648       .     S
C98   N82    1.43648       .     S
N82   C102   1.39311   1_565     S
C102  N82    1.39311   1_545     S
C83   C101   1.40591       .     S
C101  C83    1.40591       .     S
C83   C103   1.40360       .     S
C103  C83    1.40360       .     S
C84   H85    0.94990       .     S
H85   C84    0.94990       .     S
C84   C86    1.39263       .     S
C86   C84    1.39263       .     S
C84   C101   1.38220       .     S
C101  C84    1.38220       .     S
C86   C90    1.46943       .     S
C90   C86    1.46943       .     S
C86   C99    1.40773       .     S
C99   C86    1.40773       .     S
C87   C96    1.39185       .     S
C96   C87    1.39185       .     S
C87   C101   1.44844       .     S
C101  C87    1.44844       .     S
C87   C102   1.39864       .     S
C102  C87    1.39864       .     S
C88   H89    0.94997   1_545     S
H89   C88    0.94997   1_565     S
C88   C91    1.37665       .     S
C91   C88    1.37665       .     S
C88   C102   1.39198       .     S
C102  C88    1.39198       .     S
C91   H92    0.94996       .     S
H92   C91    0.94996       .     S
C91   C93    1.40796       .     S
C93   C91    1.40796       .     S
C93   C96    1.38959       .     S
C96   C93    1.38959       .     S
C93   C105   1.47663       .     S
C105  C93    1.47663       .     S
C94   H95    0.95013       .     S
H95   C94    0.95013       .     S
C94   C98    1.39015       .     S
C98   C94    1.39015       .     S
C94   C112   1.38274       .     S
C112  C94    1.38274       .     S
C96   H97    0.95004       .     S
H97   C96    0.95004       .     S
C98   C110   1.37663       .     S
C110  C98    1.37663       .     S
C99   H100   0.94996       .     S
H100  C99    0.94996       .     S
C99   C103   1.37424       .     S
C103  C99    1.37424       .     S
C103  H104   0.95009   1_545     S
H104  C103   0.95009   1_565     S
C106  H107   0.94989       .     S
H107  C106   0.94989       .     S
C106  C108   1.36772       .     S
C108  C106   1.36772       .     S
C106  C112   1.38105       .     S
C112  C106   1.38105       .     S
C108  H109   0.94997       .     S
H109  C108   0.94997       .     S
C108  C110   1.38634       .     S
C110  C108   1.38634       .     S
C110  H111   0.95001       .     S
H111  C110   0.95001       .     S
C112  H113   0.94983       .     S
H113  C112   0.94983       .     S
C11   O0     1.23276       .     S
O0    C11    1.23276       .     S
H2    O1     0.84015       .     S
O1    H2     0.84015       .     S
C11   O1     1.30012       .     S
O1    C11    1.30012       .     S
C4    N3     1.39556       .     S
N3    C4     1.39556       .     S
C6    N3     1.41677   1_565     S
N3    C6     1.41678   1_545     S
C24   N3     1.39556   1_655     S
N3    C24    1.39556   1_455     S
C5    C4     1.41014       .     S
C4    C5     1.41014       .     S
C7    C4     1.38972       .     S
C4    C7     1.38972       .     S
C9    C5     1.39263       .     S
C5    C9     1.39263       .     S
C25   C5     1.44163   1_655     S
C5    C25    1.44163   1_455     S
C19   C6     1.39329   1_655     S
C6    C19    1.39329   1_455     S
C36   C6     1.39329       .     S
C6    C36    1.39329       .     S
H8    C7     0.95007       .     S
C7    H8     0.95007       .     S
C12   C7     1.38558       .     S
C7    C12    1.38558       .     S
H10   C9     0.95000       .     S
C9    H10    0.95000       .     S
C14   C9     1.38409       .     S
C9    C14    1.38409       .     S
C14   C11    1.48518       .     S
C11   C14    1.48518       .     S
H13   C12    0.94995       .     S
C12   H13    0.94995       .     S
C14   C12    1.40947       .     S
C12   C14    1.40947       .     S
H16   C15    0.95003       .     S
C15   H16    0.95003       .     S
C17   C15    1.38445   1_455     S
C15   C17    1.38445   1_655     S
C19   C15    1.38521       .     S
C15   C19    1.38521       .     S
H18   C17    0.94997       .     S
C17   H18    0.94997       .     S
C34   C17    1.38445       .     S
C17   C34    1.38445       .     S
H20   C19    0.95006       .     S
C19   H20    0.95006       .     S
C30   O21    1.23276       .     S
O21   C30    1.23276       .     S
H23   O22    0.84002       .     S
O22   H23    0.84002       .     S
C30   O22    1.30012   1_556     S
O22   C30    1.30012   1_554     S
C25   C24    1.41014       .     S
C24   C25    1.41014       .     S
C26   C24    1.38972       .     S
C24   C26    1.38972       .     S
C28   C25    1.39263       .     S
C25   C28    1.39263       .     S
H27   C26    0.95007       .     S
C26   H27    0.95007       .     S
C31   C26    1.38558       .     S
C26   C31    1.38558       .     S
H29   C28    0.95000       .     S
C28   H29    0.95000       .     S
C33   C28    1.38409       .     S
C28   C33    1.38409       .     S
C33   C30    1.48518       .     S
C30   C33    1.48518       .     S
H32   C31    0.94995       .     S
C31   H32    0.94995       .     S
C33   C31    1.40947       .     S
C31   C33    1.40947       .     S
H35   C34    0.95003       .     S
C34   H35    0.95003       .     S
C36   C34    1.38521       .     S
C34   C36    1.38521       .     S
H37   C36    0.95006       .     S
C36   H37    0.95006       .     S
H39   O38    0.84044       .     S
O38   H39    0.84044       .     S
C75   O38    1.28220       .     S
O38   C75    1.28220       .     S
H41   O40    0.84016       .     S
O40   H41    0.84016       .     S
C54   O40    1.29757   1_554     S
O40   C54    1.29757   1_556     S
C54   O42    1.23229       .     S
O42   C54    1.23229       .     S
C75   O43    1.25455       .     S
O43   C75    1.25455       .     S
C45   N44    1.39752       .     S
N44   C45    1.39752       .     S
C59   N44    1.41658       .     S
N44   C59    1.41658       .     S
C73   N44    1.39309       .     S
N44   C73    1.39309       .     S
C69   C45    1.39104       .     S
C45   C69    1.39104       .     S
C74   C45    1.41025       .     S
C45   C74    1.41025       .     S
H47   C46    0.95003       .     S
C46   H47    0.95003       .     S
C60   C46    1.37703       .     S
C46   C60    1.37703       .     S
C73   C46    1.39667       .     S
C46   C73    1.39667       .     S
H49   C48    0.95021       .     S
C48   H49    0.95021       .     S
C68   C48    1.38301       .     S
C48   C68    1.38301       .     S
C74   C48    1.38636       .     S
C48   C74    1.38636       .     S
C55   C50    1.38573       .     S
C50   C55    1.38573       .     S
C73   C50    1.40441       .     S
C50   C73    1.40441       .     S
C74   C50    1.45431       .     S
C50   C74    1.45431       .     S
C55   C51    1.39525       .     S
C51   C55    1.39525       .     S
C60   C51    1.40437       .     S
C51   C60    1.40437       .     S
C75   C51    1.47246   1_655     S
C51   C75    1.47246   1_455     S
H53   C52    0.95015       .     S
C52   H53    0.95015       .     S
C68   C52    1.39729       .     S
C52   C68    1.39729       .     S
C69   C52    1.38872       .     S
C52   C69    1.38872       .     S
C68   C54    1.48492       .     S
C54   C68    1.48492       .     S
H56   C55    0.95005       .     S
C55   H56    0.95005       .     S
H58   C57    0.94997       .     S
C57   H58    0.94997       .     S
C59   C57    1.38528       .     S
C57   C59    1.38528       .     S
C66   C57    1.38645       .     S
C57   C66    1.38645       .     S
C64   C59    1.39016       .     S
C59   C64    1.39016       .     S
H61   C60    0.95006   1_655     S
C60   H61    0.95006   1_455     S
H63   C62    0.94997       .     S
C62   H63    0.94997       .     S
C64   C62    1.38519       .     S
C62   C64    1.38519       .     S
C71   C62    1.38855       .     S
C62   C71    1.38855       .     S
H65   C64    0.94998       .     S
C64   H65    0.94998       .     S
H67   C66    0.95007       .     S
C66   H67    0.95007       .     S
C71   C66    1.37601       .     S
C66   C71    1.37601       .     S
H70   C69    0.94985       .     S
C69   H70    0.94985       .     S
H72   C71    0.95004       .     S
C71   H72    0.95004       .     S
H77   O76    0.83985       .     S
O76   H77    0.83985       .     S
C105  O76    1.30473       .     S
O76   C105   1.30473       .     S
C105  O78    1.22146       .     S
O78   C105   1.22146       .     S
H80   O79    0.81832       .     S
O79   H80    0.81832       .     S
C90   O79    1.28581   1_556     S
O79   C90    1.28581   1_554     S
C90   O81    1.25741       .     S
O81   C90    1.25741       .     S
C83   N82    1.37877   1_545     S
N82   C83    1.37877   1_565     S
C98   N82    1.43648       .     S
N82   C98    1.43648       .     S
C102  N82    1.39311   1_545     S
N82   C102   1.39311   1_565     S
C101  C83    1.40591       .     S
C83   C101   1.40591       .     S
C103  C83    1.40360       .     S
C83   C103   1.40360       .     S
H85   C84    0.94990       .     S
C84   H85    0.94990       .     S
C86   C84    1.39263       .     S
C84   C86    1.39263       .     S
C101  C84    1.38220       .     S
C84   C101   1.38220       .     S
C90   C86    1.46943       .     S
C86   C90    1.46943       .     S
C99   C86    1.40773       .     S
C86   C99    1.40773       .     S
C96   C87    1.39185       .     S
C87   C96    1.39185       .     S
C101  C87    1.44844       .     S
C87   C101   1.44844       .     S
C102  C87    1.39864       .     S
C87   C102   1.39864       .     S
H89   C88    0.94997   1_565     S
C88   H89    0.94997   1_545     S
C91   C88    1.37665       .     S
C88   C91    1.37665       .     S
C102  C88    1.39198       .     S
C88   C102   1.39198       .     S
H92   C91    0.94996       .     S
C91   H92    0.94996       .     S
C93   C91    1.40796       .     S
C91   C93    1.40796       .     S
C96   C93    1.38959       .     S
C93   C96    1.38959       .     S
C105  C93    1.47663       .     S
C93   C105   1.47663       .     S
H95   C94    0.95013       .     S
C94   H95    0.95013       .     S
C98   C94    1.39015       .     S
C94   C98    1.39015       .     S
C112  C94    1.38274       .     S
C94   C112   1.38274       .     S
H97   C96    0.95004       .     S
C96   H97    0.95004       .     S
C110  C98    1.37663       .     S
C98   C110   1.37663       .     S
H100  C99    0.94996       .     S
C99   H100   0.94996       .     S
C103  C99    1.37424       .     S
C99   C103   1.37424       .     S
H104  C103   0.95009   1_565     S
C103  H104   0.95009   1_545     S
H107  C106   0.94989       .     S
C106  H107   0.94989       .     S
C108  C106   1.36772       .     S
C106  C108   1.36772       .     S
C112  C106   1.38105       .     S
C106  C112   1.38105       .     S
H109  C108   0.94997       .     S
C108  H109   0.94997       .     S
C110  C108   1.38634       .     S
C108  C110   1.38634       .     S
H111  C110   0.95001       .     S
C110  H111   0.95001       .     S
H113  C112   0.94983       .     S
C112  H113   0.94983       .     S
