data_I
_chemical_name_common  '/data/user2/wty/HOF/MOFDiff/mofdiff/data/test/196-1'
_cell_length_a  7.06430
_cell_length_b 14.46590
_cell_length_c 14.15100
_cell_angle_alpha 90.00000
_cell_angle_beta  99.92400
_cell_angle_gamma 90.00000
_space_group_name_H-M_alt      'P 1'


loop_
_space_group_symop_operation_xyz
  'x, y, z' 

loop_
_atom_site_label
_atom_site_fract_x
_atom_site_fract_y
_atom_site_fract_z
_atom_site_type_symbol
H0     0.75445  0.55376  0.00892     H
C1       0.686  0.25264  0.04263     C
C2     0.70632  0.16317  0.99455     C
C3     0.69152  0.13582  0.89995     C
C4     0.66316  0.19319  0.81173     C
C5     0.73941  0.01235  0.98554     C
C6     0.77128  0.91634  0.01753     C
C7     0.77102  0.89296  0.11325     C
H8     0.74857  0.93853  0.15635     H
C9      0.8038  0.80272  0.14491     C
H10    0.80272  0.78762  0.20869     H
C11    0.83816  0.73535  0.08042     C
C12    0.83585  0.75621  0.98435     C
H13     0.8561  0.71017  0.94131     H
C14    0.80278  0.84697  0.95358     C
H15    0.80166  0.86162   0.8895     H
C16     0.9905  0.62465  0.20098     C
H17    0.04201  0.66796  0.24686     H
C18     0.9108  0.49296  0.12811     C
H19    0.90026  0.42978  0.11617     H
C20     0.8303  0.56105  0.06904     C
N21    0.70932  0.04145   0.8949     N
N22    0.73735  0.08393  0.04737     N
H23    0.75283  0.08006  0.10886     H
N24    0.88275  0.64358  0.11547     N
N25    0.01111  0.53415  0.20895     N
H26    0.07672  0.50558  0.25702     H
O27     0.6661  0.32639  0.99009     O
H28    0.66103  0.31205  0.93364     H
O29     0.6862   0.2556  0.12866     O
O30    0.65979  0.15549   0.7331     O
O31    0.64582  0.28061  0.82258     O
O32     0.5524  0.57132  0.84776     O
H33    0.47263  0.61389  0.85417     H
H34    0.63402  0.60101  0.82198     H
H35    0.46293   0.3698  0.75623     H
O36    0.40378  0.41951  0.73769     O
H37    0.44578  0.46431  0.77423     H
H38    0.86598  0.10101  0.67802     H
O39     0.9476  0.07132  0.65224     O
H40    0.02737  0.11389  0.64583     H
O41    0.90378  0.08049  0.23769     O
H42    0.94578  0.03569  0.27423     H
H43    0.96293   0.1302  0.25623     H
H44    0.03707   0.8698  0.74377     H
O45    0.09622  0.91951  0.76231     O
H46    0.05422  0.96431  0.72577     H
N47    0.29068  0.95855   0.1051     N
C48      0.314  0.74736  0.95737     C
C49    0.29368  0.83683  0.00545     C
C50    0.30848  0.86418  0.10005     C
C51    0.33684  0.80681  0.18827     C
C52    0.26059  0.98765  0.01446     C
C53    0.22872  0.08366  0.98247     C
C54    0.22898  0.10704  0.88675     C
H55    0.25143  0.06147  0.84366     H
C56     0.1962  0.19728  0.85509     C
H57    0.19728  0.21238  0.79131     H
C58    0.16184  0.26465  0.91958     C
C59    0.16415  0.24379  0.01565     C
H60     0.1439  0.28983  0.05869     H
C61    0.19722  0.15303  0.04642     C
H62    0.19834  0.13838   0.1105     H
C63     0.0095  0.37535  0.79902     C
H64    0.95799  0.33204  0.75314     H
C65     0.0892  0.50704  0.87189     C
H66    0.09974  0.57022  0.88383     H
C67     0.1697  0.43895  0.93096     C
H68    0.24555  0.44623  0.99108     H
N69    0.26265  0.91607  0.95263     N
H70    0.24717  0.91994  0.89114     H
N71    0.11725  0.35642  0.88453     N
N72    0.98889  0.46585  0.79105     N
H73    0.92328  0.49442  0.74298     H
O74     0.3339  0.67361  0.00991     O
H75    0.33897  0.68795  0.06636     H
O76     0.3138   0.7444  0.87134     O
O77    0.34021  0.84451   0.2669     O
O78    0.35418  0.71939  0.17742     O
O79     0.4476  0.42868  0.15224     O
H80    0.52737  0.38611  0.14583     H
H81    0.36598  0.39899  0.17802     H
H82    0.30272  0.71238  0.70869     H
C83      0.186  0.24736  0.54263     C
C84    0.20632  0.33683  0.49455     C
C85    0.19152  0.36418  0.39995     C
C86    0.16316  0.30681  0.31173     C
C87    0.23941  0.48765  0.48554     C
C88    0.27128  0.58366  0.51753     C
C89    0.27102  0.60704  0.61325     C
H90    0.24857  0.56147  0.65635     H
C91     0.3038  0.69728  0.64491     C
C92    0.33816  0.76465  0.58042     C
C93    0.33585  0.74379  0.48435     C
H94     0.3561  0.78983  0.44131     H
C95    0.30278  0.65303  0.45358     C
H96    0.30166  0.63838   0.3895     H
C97     0.4905  0.87535  0.70098     C
H98    0.54201  0.83204  0.74686     H
C99     0.4108  0.00704  0.62811     C
H100   0.40026  0.07022  0.61617     H
C101    0.3303  0.93895  0.56904     C
H102   0.25445  0.94624  0.50892     H
N103   0.20932  0.45855   0.3949     N
N104   0.23735  0.41607  0.54737     N
H105   0.25283  0.41994  0.60886     H
N106   0.38275  0.85642  0.61547     N
N107   0.51111  0.96585  0.70895     N
H108   0.57672  0.99442  0.75702     H
O109    0.1661  0.17361  0.49009     O
H110   0.16103  0.18795  0.43364     H
O111    0.1862   0.2444  0.62866     O
O112   0.15979  0.34451   0.2331     O
O113   0.14582  0.21939  0.32258     O
H114   0.69728  0.28762  0.29131     H
C115     0.814  0.75264  0.45737     C
C116   0.79368  0.66317  0.50545     C
C117   0.80848  0.63582  0.60005     C
C118   0.83684  0.69319  0.68827     C
C119   0.76059  0.51235  0.51446     C
C120   0.72872  0.41634  0.48247     C
C121   0.72898  0.39296  0.38675     C
H122   0.75143  0.43853  0.34366     H
C123    0.6962  0.30272  0.35509     C
C124   0.66184  0.23535  0.41958     C
C125   0.66415  0.25621  0.51565     C
H126    0.6439  0.21017  0.55869     H
C127   0.69722  0.34697  0.54642     C
H128   0.69834  0.36162   0.6105     H
C129    0.5095  0.12465  0.29902     C
H130   0.45799  0.16796  0.25314     H
C131    0.5892  0.99296  0.37189     C
H132   0.59974  0.92978  0.38383     H
C133    0.6697  0.06105  0.43096     C
H134   0.74555  0.05376  0.49108     H
N135   0.79068  0.54145   0.6051     N
N136   0.76265  0.58393  0.45263     N
H137   0.74717  0.58006  0.39114     H
N138   0.61725  0.14358  0.38453     N
N139   0.48889  0.03415  0.29105     N
H140   0.42328  0.00558  0.24298     H
O141    0.8339  0.82639  0.50991     O
H142   0.83897  0.81205  0.56636     H
O143    0.8138   0.7556  0.37134     O
O144   0.84021  0.65549   0.7669     O
O145   0.85418  0.78061  0.67742     O
O146    0.0524  0.92868  0.34776     O
H147   0.97263  0.88611  0.35417     H
H148   0.13402  0.89899  0.32198     H
O149   0.59622  0.58049  0.26231     O
H150   0.55422  0.53569  0.22577     H
H151   0.53707   0.6302  0.24377     H
loop_
_geom_bond_atom_site_label_1
_geom_bond_atom_site_label_2
_geom_bond_distance
_geom_bond_site_symmetry_2
_ccdc_geom_bond_type
H23   O41    1.94696       .     S
O41   H23    1.94696       .     S
H26   O112   2.44058       .     S
O112  H26    2.44058       .     S
H26   N103   2.12539       .     S
N103  H26    2.12539       .     S
H28   O31    1.62177       .     S
O31   H28    1.62177       .     S
H33   O76    2.23076       .     S
O76   H33    2.23076       .     S
H34   O144   1.93432       .     S
O144  H34    1.93432       .     S
H35   O31    1.94867       .     S
O31   H35    1.94867       .     S
H37   O32    1.94323       .     S
O32   H37    1.94323       .     S
H38   O30    1.93432       .     S
O30   H38    1.93432       .     S
H40   O111   2.23076       .     S
O111  H40    2.23076       .     S
H42   O146   1.94323   1_645     S
O146  H42    1.94323   1_465     S
H43   O113   1.94867   1_655     S
O113  H43    1.94867   1_455     S
H44   O145   1.94867   1_455     S
O145  H44    1.94867   1_655     S
H46   O39    1.94323   1_465     S
O39   H46    1.94323   1_645     S
H70   O45    1.94696       .     S
O45   H70    1.94696       .     S
H73   O144   2.44058       .     S
O144  H73    2.44058       .     S
H73   N135   2.12539       .     S
N135  H73    2.12539       .     S
H75   O78    1.62177       .     S
O78   H75    1.62177       .     S
H80   O29    2.23076       .     S
O29   H80    2.23076       .     S
H81   O112   1.93432       .     S
O112  H81    1.93432       .     S
H105  O36    1.94696       .     S
O36   H105   1.94696       .     S
H108  O30    2.44058   1_565     S
O30   H108   2.44058   1_545     S
H108  N21    2.12539   1_565     S
N21   H108   2.12539   1_545     S
H110  O113   1.62177       .     S
O113  H110   1.62177       .     S
H137  O149   1.94696       .     S
O149  H137   1.94696       .     S
H140  O77    2.44058   1_545     S
O77   H140   2.44058   1_565     S
H140  N47    2.12539   1_545     S
N47   H140   2.12539   1_565     S
H142  O145   1.62177       .     S
O145  H142   1.62177       .     S
H147  O143   2.23076       .     S
O143  H147   2.23076       .     S
H148  O77    1.93432       .     S
O77   H148   1.93432       .     S
H150  O79    1.94323       .     S
O79   H150   1.94323       .     S
H151  O78    1.94867       .     S
O78   H151   1.94867       .     S
H0    C20    0.93000       .     S
C20   H0     0.93000       .     S
C1    C2     1.48064   1_554     S
C2    C1     1.48064   1_556     S
C1    O27    1.29411   1_554     S
O27   C1     1.29411   1_556     S
C1    O29    1.21792       .     S
O29   C1     1.21792       .     S
C2    C3     1.38250       .     S
C3    C2     1.38250       .     S
C2    N22    1.36536   1_556     S
N22   C2     1.36536   1_554     S
C3    C4     1.48364       .     S
C4    C3     1.48364       .     S
C3    N21    1.37392       .     S
N21   C3     1.37392       .     S
C4    O30    1.23570       .     S
O30   C4     1.23570       .     S
C4    O31    1.28230       .     S
O31   C4     1.28230       .     S
C5    C6     1.46610   1_546     S
C6    C5     1.46610   1_564     S
C5    N21    1.33176       .     S
N21   C5     1.33176       .     S
C5    N22    1.35733   1_556     S
N22   C5     1.35733   1_554     S
C6    C7     1.39643       .     S
C7    C6     1.39643       .     S
C6    C14    1.39459   1_554     S
C14   C6     1.39459   1_556     S
C7    H8     0.93007       .     S
H8    C7     0.93007       .     S
C7    C9     1.38660       .     S
C9    C7     1.38660       .     S
C9    H10    0.92992       .     S
H10   C9     0.92992       .     S
C9    C11    1.38488       .     S
C11   C9     1.38488       .     S
C11   C12    1.38992   1_554     S
C12   C11    1.38992   1_556     S
C11   N24    1.43308       .     S
N24   C11    1.43308       .     S
C12   H13    0.93006       .     S
H13   C12    0.93006       .     S
C12   C14    1.39028       .     S
C14   C12    1.39028       .     S
C14   H15    0.92994       .     S
H15   C14    0.92994       .     S
C16   H17    0.93007   1_655     S
H17   C16    0.93007   1_455     S
C16   N24    1.34206       .     S
N24   C16    1.34206       .     S
C16   N25    1.31991   1_655     S
N25   C16    1.31991   1_455     S
C18   H19    0.93009       .     S
H19   C18    0.93009       .     S
C18   C20    1.35221       .     S
C20   C18    1.35221       .     S
C18   N25    1.37347   1_655     S
N25   C18    1.37347   1_455     S
C20   N24    1.38217       .     S
N24   C20    1.38217       .     S
N22   H23    0.85991       .     S
H23   N22    0.85991       .     S
N25   H26    0.86005       .     S
H26   N25    0.86005       .     S
O27   H28    0.82011       .     S
H28   O27    0.82011       .     S
O32   H33    0.85007       .     S
H33   O32    0.85007       .     S
O32   H34    0.85001       .     S
H34   O32    0.85001       .     S
H35   O36    0.85015       .     S
O36   H35    0.85015       .     S
O36   H37    0.85001       .     S
H37   O36    0.85001       .     S
H38   O39    0.85000       .     S
O39   H38    0.85000       .     S
O39   H40    0.85007   1_655     S
H40   O39    0.85007   1_455     S
O41   H42    0.85001       .     S
H42   O41    0.85001       .     S
O41   H43    0.85015       .     S
H43   O41    0.85015       .     S
H44   O45    0.85015       .     S
O45   H44    0.85015       .     S
O45   H46    0.85001       .     S
H46   O45    0.85001       .     S
N47   C50    1.37391       .     S
C50   N47    1.37391       .     S
N47   C52    1.33176       .     S
C52   N47    1.33176       .     S
C48   C49    1.48064   1_556     S
C49   C48    1.48064   1_554     S
C48   O74    1.29411   1_556     S
O74   C48    1.29411   1_554     S
C48   O76    1.21792       .     S
O76   C48    1.21792       .     S
C49   C50    1.38250       .     S
C50   C49    1.38250       .     S
C49   N69    1.36536   1_554     S
N69   C49    1.36536   1_556     S
C50   C51    1.48364       .     S
C51   C50    1.48364       .     S
C51   O77    1.23570       .     S
O77   C51    1.23570       .     S
C51   O78    1.28230       .     S
O78   C51    1.28230       .     S
C52   C53    1.46610   1_564     S
C53   C52    1.46610   1_546     S
C52   N69    1.35733   1_554     S
N69   C52    1.35733   1_556     S
C53   C54    1.39643       .     S
C54   C53    1.39643       .     S
C53   C61    1.39459   1_556     S
C61   C53    1.39459   1_554     S
C54   H55    0.92998       .     S
H55   C54    0.92998       .     S
C54   C56    1.38660       .     S
C56   C54    1.38660       .     S
C56   H57    0.92992       .     S
H57   C56    0.92992       .     S
C56   C58    1.38488       .     S
C58   C56    1.38488       .     S
C58   C59    1.38992   1_556     S
C59   C58    1.38992   1_554     S
C58   N71    1.43308       .     S
N71   C58    1.43308       .     S
C59   H60    0.93006       .     S
H60   C59    0.93006       .     S
C59   C61    1.39028       .     S
C61   C59    1.39028       .     S
C61   H62    0.92994       .     S
H62   C61    0.92994       .     S
C63   H64    0.93007   1_455     S
H64   C63    0.93007   1_655     S
C63   N71    1.34206       .     S
N71   C63    1.34206       .     S
C63   N72    1.31991   1_455     S
N72   C63    1.31991   1_655     S
C65   H66    0.93009       .     S
H66   C65    0.93009       .     S
C65   C67    1.35221       .     S
C67   C65    1.35221       .     S
C65   N72    1.37347   1_455     S
N72   C65    1.37347   1_655     S
C67   H68    0.92998       .     S
H68   C67    0.92998       .     S
C67   N71    1.38217       .     S
N71   C67    1.38217       .     S
N69   H70    0.85991       .     S
H70   N69    0.85991       .     S
N72   H73    0.86005       .     S
H73   N72    0.86005       .     S
O74   H75    0.82011       .     S
H75   O74    0.82011       .     S
O79   H80    0.85007       .     S
H80   O79    0.85007       .     S
O79   H81    0.85001       .     S
H81   O79    0.85001       .     S
H82   C91    0.92992       .     S
C91   H82    0.92992       .     S
C83   C84    1.48064       .     S
C84   C83    1.48064       .     S
C83   O109   1.29411       .     S
O109  C83    1.29411       .     S
C83   O111   1.21792       .     S
O111  C83    1.21792       .     S
C84   C85    1.38250       .     S
C85   C84    1.38250       .     S
C84   N104   1.36536       .     S
N104  C84    1.36536       .     S
C85   C86    1.48364       .     S
C86   C85    1.48364       .     S
C85   N103   1.37392       .     S
N103  C85    1.37392       .     S
C86   O112   1.23570       .     S
O112  C86    1.23570       .     S
C86   O113   1.28230       .     S
O113  C86    1.28230       .     S
C87   C88    1.46610       .     S
C88   C87    1.46610       .     S
C87   N103   1.33176       .     S
N103  C87    1.33176       .     S
C87   N104   1.35733       .     S
N104  C87    1.35733       .     S
C88   C89    1.39643       .     S
C89   C88    1.39643       .     S
C88   C95    1.39459       .     S
C95   C88    1.39459       .     S
C89   H90    0.93007       .     S
H90   C89    0.93007       .     S
C89   C91    1.38660       .     S
C91   C89    1.38660       .     S
C91   C92    1.38488       .     S
C92   C91    1.38488       .     S
C92   C93    1.38992       .     S
C93   C92    1.38992       .     S
C92   N106   1.43308       .     S
N106  C92    1.43308       .     S
C93   H94    0.93006       .     S
H94   C93    0.93006       .     S
C93   C95    1.39028       .     S
C95   C93    1.39028       .     S
C95   H96    0.92994       .     S
H96   C95    0.92994       .     S
C97   H98    0.93007       .     S
H98   C97    0.93007       .     S
C97   N106   1.34206       .     S
N106  C97    1.34206       .     S
C97   N107   1.31991       .     S
N107  C97    1.31991       .     S
C99   H100   0.93009       .     S
H100  C99    0.93009       .     S
C99   C101   1.35221   1_545     S
C101  C99    1.35221   1_565     S
C99   N107   1.37347   1_545     S
N107  C99    1.37347   1_565     S
C101  H102   0.93000       .     S
H102  C101   0.93000       .     S
C101  N106   1.38217       .     S
N106  C101   1.38217       .     S
N104  H105   0.85991       .     S
H105  N104   0.85991       .     S
N107  H108   0.86005       .     S
H108  N107   0.86005       .     S
O109  H110   0.82011       .     S
H110  O109   0.82011       .     S
H114  C123   0.92992       .     S
C123  H114   0.92992       .     S
C115  C116   1.48064       .     S
C116  C115   1.48064       .     S
C115  O141   1.29411       .     S
O141  C115   1.29411       .     S
C115  O143   1.21792       .     S
O143  C115   1.21792       .     S
C116  C117   1.38250       .     S
C117  C116   1.38250       .     S
C116  N136   1.36536       .     S
N136  C116   1.36536       .     S
C117  C118   1.48364       .     S
C118  C117   1.48364       .     S
C117  N135   1.37391       .     S
N135  C117   1.37391       .     S
C118  O144   1.23570       .     S
O144  C118   1.23570       .     S
C118  O145   1.28230       .     S
O145  C118   1.28230       .     S
C119  C120   1.46610       .     S
C120  C119   1.46610       .     S
C119  N135   1.33176       .     S
N135  C119   1.33176       .     S
C119  N136   1.35733       .     S
N136  C119   1.35733       .     S
C120  C121   1.39643       .     S
C121  C120   1.39643       .     S
C120  C127   1.39459       .     S
C127  C120   1.39459       .     S
C121  H122   0.92998       .     S
H122  C121   0.92998       .     S
C121  C123   1.38660       .     S
C123  C121   1.38660       .     S
C123  C124   1.38488       .     S
C124  C123   1.38488       .     S
C124  C125   1.38992       .     S
C125  C124   1.38992       .     S
C124  N138   1.43308       .     S
N138  C124   1.43308       .     S
C125  H126   0.93006       .     S
H126  C125   0.93006       .     S
C125  C127   1.39028       .     S
C127  C125   1.39028       .     S
C127  H128   0.92994       .     S
H128  C127   0.92994       .     S
C129  H130   0.93007       .     S
H130  C129   0.93007       .     S
C129  N138   1.34206       .     S
N138  C129   1.34206       .     S
C129  N139   1.31991       .     S
N139  C129   1.31991       .     S
C131  H132   0.93009       .     S
H132  C131   0.93009       .     S
C131  C133   1.35221   1_565     S
C133  C131   1.35221   1_545     S
C131  N139   1.37347   1_565     S
N139  C131   1.37347   1_545     S
C133  H134   0.93000       .     S
H134  C133   0.93000       .     S
C133  N138   1.38217       .     S
N138  C133   1.38217       .     S
N136  H137   0.85991       .     S
H137  N136   0.85991       .     S
N139  H140   0.86005       .     S
H140  N139   0.86005       .     S
O141  H142   0.82011       .     S
H142  O141   0.82011       .     S
O146  H147   0.85007   1_455     S
H147  O146   0.85007   1_655     S
O146  H148   0.85001       .     S
H148  O146   0.85001       .     S
O149  H150   0.85001       .     S
H150  O149   0.85001       .     S
O149  H151   0.85015       .     S
H151  O149   0.85015       .     S
O41   H23    1.94696       .     S
H23   O41    1.94696       .     S
O112  H26    2.44058       .     S
H26   O112   2.44058       .     S
N103  H26    2.12539       .     S
H26   N103   2.12539       .     S
O31   H28    1.62177       .     S
H28   O31    1.62177       .     S
O76   H33    2.23076       .     S
H33   O76    2.23076       .     S
O144  H34    1.93432       .     S
H34   O144   1.93432       .     S
O31   H35    1.94867       .     S
H35   O31    1.94867       .     S
O32   H37    1.94323       .     S
H37   O32    1.94323       .     S
O30   H38    1.93432       .     S
H38   O30    1.93432       .     S
O111  H40    2.23076       .     S
H40   O111   2.23076       .     S
O146  H42    1.94323   1_465     S
H42   O146   1.94323   1_645     S
O113  H43    1.94867   1_455     S
H43   O113   1.94867   1_655     S
O145  H44    1.94867   1_655     S
H44   O145   1.94867   1_455     S
O39   H46    1.94323   1_645     S
H46   O39    1.94323   1_465     S
O45   H70    1.94696       .     S
H70   O45    1.94696       .     S
O144  H73    2.44058       .     S
H73   O144   2.44058       .     S
N135  H73    2.12539       .     S
H73   N135   2.12539       .     S
O78   H75    1.62177       .     S
H75   O78    1.62177       .     S
O29   H80    2.23076       .     S
H80   O29    2.23076       .     S
O112  H81    1.93432       .     S
H81   O112   1.93432       .     S
O36   H105   1.94696       .     S
H105  O36    1.94696       .     S
O30   H108   2.44058   1_545     S
H108  O30    2.44058   1_565     S
N21   H108   2.12539   1_545     S
H108  N21    2.12539   1_565     S
O113  H110   1.62177       .     S
H110  O113   1.62177       .     S
O149  H137   1.94696       .     S
H137  O149   1.94696       .     S
O77   H140   2.44058   1_565     S
H140  O77    2.44058   1_545     S
N47   H140   2.12539   1_565     S
H140  N47    2.12539   1_545     S
O145  H142   1.62177       .     S
H142  O145   1.62177       .     S
O143  H147   2.23076       .     S
H147  O143   2.23076       .     S
O77   H148   1.93432       .     S
H148  O77    1.93432       .     S
O79   H150   1.94323       .     S
H150  O79    1.94323       .     S
O78   H151   1.94867       .     S
H151  O78    1.94867       .     S
C20   H0     0.93000       .     S
H0    C20    0.93000       .     S
C2    C1     1.48064   1_556     S
C1    C2     1.48064   1_554     S
O27   C1     1.29411   1_556     S
C1    O27    1.29411   1_554     S
O29   C1     1.21792       .     S
C1    O29    1.21792       .     S
C3    C2     1.38250       .     S
C2    C3     1.38250       .     S
N22   C2     1.36536   1_554     S
C2    N22    1.36536   1_556     S
C4    C3     1.48364       .     S
C3    C4     1.48364       .     S
N21   C3     1.37392       .     S
C3    N21    1.37392       .     S
O30   C4     1.23570       .     S
C4    O30    1.23570       .     S
O31   C4     1.28230       .     S
C4    O31    1.28230       .     S
C6    C5     1.46610   1_564     S
C5    C6     1.46610   1_546     S
N21   C5     1.33176       .     S
C5    N21    1.33176       .     S
N22   C5     1.35733   1_554     S
C5    N22    1.35733   1_556     S
C7    C6     1.39643       .     S
C6    C7     1.39643       .     S
C14   C6     1.39459   1_556     S
C6    C14    1.39459   1_554     S
H8    C7     0.93007       .     S
C7    H8     0.93007       .     S
C9    C7     1.38660       .     S
C7    C9     1.38660       .     S
H10   C9     0.92992       .     S
C9    H10    0.92992       .     S
C11   C9     1.38488       .     S
C9    C11    1.38488       .     S
C12   C11    1.38992   1_556     S
C11   C12    1.38992   1_554     S
N24   C11    1.43308       .     S
C11   N24    1.43308       .     S
H13   C12    0.93006       .     S
C12   H13    0.93006       .     S
C14   C12    1.39028       .     S
C12   C14    1.39028       .     S
H15   C14    0.92994       .     S
C14   H15    0.92994       .     S
H17   C16    0.93007   1_455     S
C16   H17    0.93007   1_655     S
N24   C16    1.34206       .     S
C16   N24    1.34206       .     S
N25   C16    1.31991   1_455     S
C16   N25    1.31991   1_655     S
H19   C18    0.93009       .     S
C18   H19    0.93009       .     S
C20   C18    1.35221       .     S
C18   C20    1.35221       .     S
N25   C18    1.37347   1_455     S
C18   N25    1.37347   1_655     S
N24   C20    1.38217       .     S
C20   N24    1.38217       .     S
H23   N22    0.85991       .     S
N22   H23    0.85991       .     S
H26   N25    0.86005       .     S
N25   H26    0.86005       .     S
H28   O27    0.82011       .     S
O27   H28    0.82011       .     S
H33   O32    0.85007       .     S
O32   H33    0.85007       .     S
H34   O32    0.85001       .     S
O32   H34    0.85001       .     S
O36   H35    0.85015       .     S
H35   O36    0.85015       .     S
H37   O36    0.85001       .     S
O36   H37    0.85001       .     S
O39   H38    0.85000       .     S
H38   O39    0.85000       .     S
H40   O39    0.85007   1_455     S
O39   H40    0.85007   1_655     S
H42   O41    0.85001       .     S
O41   H42    0.85001       .     S
H43   O41    0.85015       .     S
O41   H43    0.85015       .     S
O45   H44    0.85015       .     S
H44   O45    0.85015       .     S
H46   O45    0.85001       .     S
O45   H46    0.85001       .     S
C50   N47    1.37391       .     S
N47   C50    1.37391       .     S
C52   N47    1.33176       .     S
N47   C52    1.33176       .     S
C49   C48    1.48064   1_554     S
C48   C49    1.48064   1_556     S
O74   C48    1.29411   1_554     S
C48   O74    1.29411   1_556     S
O76   C48    1.21792       .     S
C48   O76    1.21792       .     S
C50   C49    1.38250       .     S
C49   C50    1.38250       .     S
N69   C49    1.36536   1_556     S
C49   N69    1.36536   1_554     S
C51   C50    1.48364       .     S
C50   C51    1.48364       .     S
O77   C51    1.23570       .     S
C51   O77    1.23570       .     S
O78   C51    1.28230       .     S
C51   O78    1.28230       .     S
C53   C52    1.46610   1_546     S
C52   C53    1.46610   1_564     S
N69   C52    1.35733   1_556     S
C52   N69    1.35733   1_554     S
C54   C53    1.39643       .     S
C53   C54    1.39643       .     S
C61   C53    1.39459   1_554     S
C53   C61    1.39459   1_556     S
H55   C54    0.92998       .     S
C54   H55    0.92998       .     S
C56   C54    1.38660       .     S
C54   C56    1.38660       .     S
H57   C56    0.92992       .     S
C56   H57    0.92992       .     S
C58   C56    1.38488       .     S
C56   C58    1.38488       .     S
C59   C58    1.38992   1_554     S
C58   C59    1.38992   1_556     S
N71   C58    1.43308       .     S
C58   N71    1.43308       .     S
H60   C59    0.93006       .     S
C59   H60    0.93006       .     S
C61   C59    1.39028       .     S
C59   C61    1.39028       .     S
H62   C61    0.92994       .     S
C61   H62    0.92994       .     S
H64   C63    0.93007   1_655     S
C63   H64    0.93007   1_455     S
N71   C63    1.34206       .     S
C63   N71    1.34206       .     S
N72   C63    1.31991   1_655     S
C63   N72    1.31991   1_455     S
H66   C65    0.93009       .     S
C65   H66    0.93009       .     S
C67   C65    1.35221       .     S
C65   C67    1.35221       .     S
N72   C65    1.37347   1_655     S
C65   N72    1.37347   1_455     S
H68   C67    0.92998       .     S
C67   H68    0.92998       .     S
N71   C67    1.38217       .     S
C67   N71    1.38217       .     S
H70   N69    0.85991       .     S
N69   H70    0.85991       .     S
H73   N72    0.86005       .     S
N72   H73    0.86005       .     S
H75   O74    0.82011       .     S
O74   H75    0.82011       .     S
H80   O79    0.85007       .     S
O79   H80    0.85007       .     S
H81   O79    0.85001       .     S
O79   H81    0.85001       .     S
C91   H82    0.92992       .     S
H82   C91    0.92992       .     S
C84   C83    1.48064       .     S
C83   C84    1.48064       .     S
O109  C83    1.29411       .     S
C83   O109   1.29411       .     S
O111  C83    1.21792       .     S
C83   O111   1.21792       .     S
C85   C84    1.38250       .     S
C84   C85    1.38250       .     S
N104  C84    1.36536       .     S
C84   N104   1.36536       .     S
C86   C85    1.48364       .     S
C85   C86    1.48364       .     S
N103  C85    1.37392       .     S
C85   N103   1.37392       .     S
O112  C86    1.23570       .     S
C86   O112   1.23570       .     S
O113  C86    1.28230       .     S
C86   O113   1.28230       .     S
C88   C87    1.46610       .     S
C87   C88    1.46610       .     S
N103  C87    1.33176       .     S
C87   N103   1.33176       .     S
N104  C87    1.35733       .     S
C87   N104   1.35733       .     S
C89   C88    1.39643       .     S
C88   C89    1.39643       .     S
C95   C88    1.39459       .     S
C88   C95    1.39459       .     S
H90   C89    0.93007       .     S
C89   H90    0.93007       .     S
C91   C89    1.38660       .     S
C89   C91    1.38660       .     S
C92   C91    1.38488       .     S
C91   C92    1.38488       .     S
C93   C92    1.38992       .     S
C92   C93    1.38992       .     S
N106  C92    1.43308       .     S
C92   N106   1.43308       .     S
H94   C93    0.93006       .     S
C93   H94    0.93006       .     S
C95   C93    1.39028       .     S
C93   C95    1.39028       .     S
H96   C95    0.92994       .     S
C95   H96    0.92994       .     S
H98   C97    0.93007       .     S
C97   H98    0.93007       .     S
N106  C97    1.34206       .     S
C97   N106   1.34206       .     S
N107  C97    1.31991       .     S
C97   N107   1.31991       .     S
H100  C99    0.93009       .     S
C99   H100   0.93009       .     S
C101  C99    1.35221   1_565     S
C99   C101   1.35221   1_545     S
N107  C99    1.37347   1_565     S
C99   N107   1.37347   1_545     S
H102  C101   0.93000       .     S
C101  H102   0.93000       .     S
N106  C101   1.38217       .     S
C101  N106   1.38217       .     S
H105  N104   0.85991       .     S
N104  H105   0.85991       .     S
H108  N107   0.86005       .     S
N107  H108   0.86005       .     S
H110  O109   0.82011       .     S
O109  H110   0.82011       .     S
C123  H114   0.92992       .     S
H114  C123   0.92992       .     S
C116  C115   1.48064       .     S
C115  C116   1.48064       .     S
O141  C115   1.29411       .     S
C115  O141   1.29411       .     S
O143  C115   1.21792       .     S
C115  O143   1.21792       .     S
C117  C116   1.38250       .     S
C116  C117   1.38250       .     S
N136  C116   1.36536       .     S
C116  N136   1.36536       .     S
C118  C117   1.48364       .     S
C117  C118   1.48364       .     S
N135  C117   1.37391       .     S
C117  N135   1.37391       .     S
O144  C118   1.23570       .     S
C118  O144   1.23570       .     S
O145  C118   1.28230       .     S
C118  O145   1.28230       .     S
C120  C119   1.46610       .     S
C119  C120   1.46610       .     S
N135  C119   1.33176       .     S
C119  N135   1.33176       .     S
N136  C119   1.35733       .     S
C119  N136   1.35733       .     S
C121  C120   1.39643       .     S
C120  C121   1.39643       .     S
C127  C120   1.39459       .     S
C120  C127   1.39459       .     S
H122  C121   0.92998       .     S
C121  H122   0.92998       .     S
C123  C121   1.38660       .     S
C121  C123   1.38660       .     S
C124  C123   1.38488       .     S
C123  C124   1.38488       .     S
C125  C124   1.38992       .     S
C124  C125   1.38992       .     S
N138  C124   1.43308       .     S
C124  N138   1.43308       .     S
H126  C125   0.93006       .     S
C125  H126   0.93006       .     S
C127  C125   1.39028       .     S
C125  C127   1.39028       .     S
H128  C127   0.92994       .     S
C127  H128   0.92994       .     S
H130  C129   0.93007       .     S
C129  H130   0.93007       .     S
N138  C129   1.34206       .     S
C129  N138   1.34206       .     S
N139  C129   1.31991       .     S
C129  N139   1.31991       .     S
H132  C131   0.93009       .     S
C131  H132   0.93009       .     S
C133  C131   1.35221   1_545     S
C131  C133   1.35221   1_565     S
N139  C131   1.37347   1_545     S
C131  N139   1.37347   1_565     S
H134  C133   0.93000       .     S
C133  H134   0.93000       .     S
N138  C133   1.38217       .     S
C133  N138   1.38217       .     S
H137  N136   0.85991       .     S
N136  H137   0.85991       .     S
H140  N139   0.86005       .     S
N139  H140   0.86005       .     S
H142  O141   0.82011       .     S
O141  H142   0.82011       .     S
H147  O146   0.85007   1_655     S
O146  H147   0.85007   1_455     S
H148  O146   0.85001       .     S
O146  H148   0.85001       .     S
H150  O149   0.85001       .     S
O149  H150   0.85001       .     S
H151  O149   0.85015       .     S
O149  H151   0.85015       .     S
