data_I
_chemical_name_common  '/data/user2/wty/HOF/MOFDiff/mofdiff/data/test/1_1'
_cell_length_a  6.16560
_cell_length_b  7.30740
_cell_length_c 14.07600
_cell_angle_alpha 96.89800
_cell_angle_beta  93.06800
_cell_angle_gamma 92.39700
_space_group_name_H-M_alt      'P 1'


loop_
_space_group_symop_operation_xyz
  'x, y, z' 

loop_
_atom_site_label
_atom_site_fract_x
_atom_site_fract_y
_atom_site_fract_z
_atom_site_type_symbol
S0     0.33088  0.24389  0.36041     S
O1      0.0933   0.2313  0.36447     O
O2      0.4188   0.4351  0.37679     O
O3      0.4388   0.1239  0.42212     O
C4      0.3869   0.1594  0.24062     C
C5       0.234   0.0505  0.18179     C
H6      0.0972   0.0194  0.20509     H
C7      0.2803   0.9862   0.0884     C
H8      0.1746   0.9095    0.049     H
C9      0.4773   0.0312  0.05105     C
C10     0.6303   0.1386   0.1126     C
H11     0.7679   0.1691   0.0898     H
C12     0.5868   0.2022   0.2064     C
H13     0.6941   0.2748    0.247     H
C14     0.5227   0.9688  0.94895     C
C15     0.7197   0.0138   0.9116     C
C16      0.766   0.9495  0.81821     C
C17     0.6131   0.8406  0.75938     C
S18    0.66912  0.75611  0.63959     S
O19     0.9067   0.7687  0.63553     O
O20     0.5812   0.5649  0.62321     O
O21     0.5612   0.8761  0.57788     O
C22     0.4132   0.7978   0.7936     C
C23     0.3697   0.8614   0.8874     C
H24     0.2321   0.8309   0.9102     H
H25     0.3059   0.7252    0.753     H
H26     0.9028   0.9806  0.79491     H
H27     0.8254   0.0905    0.951     H
C28     0.9593   0.7462  0.40084     C
N29     0.8637   0.5801  0.40229     N
H30     0.9427   0.4824  0.40128     H
H31     0.7215   0.5678  0.40427     H
N32      0.174   0.7633  0.39786     N
H33      0.252    0.665  0.39686     H
H34     0.2382   0.8728  0.39688     H
N35     0.8421   0.8958  0.39986     N
H36     0.9073   0.0043  0.39726     H
H37     0.6998   0.8857  0.40181     H
loop_
_geom_bond_atom_site_label_1
_geom_bond_atom_site_label_2
_geom_bond_distance
_geom_bond_site_symmetry_2
_ccdc_geom_bond_type
H30   O1     2.11261   1_655     S
O1    H30    2.11261   1_455     S
H31   O2     2.06261       .     S
O2    H31    2.06261       .     S
H33   O2     2.00534       .     S
O2    H33    2.00534       .     S
H34   O3     2.15158   1_565     S
O3    H34    2.15158   1_545     S
H36   O1     2.08834   1_655     S
O1    H36    2.08834   1_455     S
H37   O3     2.42180   1_565     S
O3    H37    2.42180   1_545     S
S0    O1     1.46846       .     S
O1    S0     1.46846       .     S
S0    O2     1.46465       .     S
O2    S0     1.46465       .     S
S0    O3     1.46149       .     S
O3    S0     1.46149       .     S
S0    C4     1.78150       .     S
C4    S0     1.78150       .     S
C4    C5     1.37953       .     S
C5    C4     1.37953       .     S
C4    C12    1.38434       .     S
C12   C4     1.38434       .     S
C5    H6     0.94979       .     S
H6    C5     0.94979       .     S
C5    C7     1.39045   1_545     S
C7    C5     1.39045   1_565     S
C7    H8     0.95001       .     S
H8    C7     0.95001       .     S
C7    C9     1.39151   1_565     S
C9    C7     1.39151   1_545     S
C9    C10    1.39416       .     S
C10   C9     1.39416       .     S
C9    C14    1.49934   1_544     S
C14   C9     1.49934   1_566     S
C10   H11    0.95023       .     S
H11   C10    0.95023       .     S
C10   C12    1.39001       .     S
C12   C10    1.39001       .     S
C12   H13    0.95030       .     S
H13   C12    0.95030       .     S
C14   C15    1.39151   1_565     S
C15   C14    1.39151   1_545     S
C14   C23    1.39416       .     S
C23   C14    1.39416       .     S
C15   C16    1.39045   1_545     S
C16   C15    1.39045   1_565     S
C15   H27    0.95001       .     S
H27   C15    0.95001       .     S
C16   C17    1.37953       .     S
C17   C16    1.37953       .     S
C16   H26    0.94979       .     S
H26   C16    0.94979       .     S
C17   S18    1.78150       .     S
S18   C17    1.78150       .     S
C17   C22    1.38434       .     S
C22   C17    1.38434       .     S
S18   O19    1.46846       .     S
O19   S18    1.46846       .     S
S18   O20    1.46465       .     S
O20   S18    1.46465       .     S
S18   O21    1.46149       .     S
O21   S18    1.46149       .     S
C22   C23    1.39001       .     S
C23   C22    1.39001       .     S
C22   H25    0.95030       .     S
H25   C22    0.95030       .     S
C23   H24    0.95023       .     S
H24   C23    0.95023       .     S
C28   N29    1.32983       .     S
N29   C28    1.32983       .     S
C28   N32    1.32781   1_655     S
N32   C28    1.32781   1_455     S
C28   N35    1.33643       .     S
N35   C28    1.33643       .     S
N29   H30    0.88008       .     S
H30   N29    0.88008       .     S
N29   H31    0.87987       .     S
H31   N29    0.87987       .     S
N32   H33    0.88014       .     S
H33   N32    0.88014       .     S
N32   H34    0.87970       .     S
H34   N32    0.87970       .     S
N35   H36    0.87945   1_565     S
H36   N35    0.87945   1_545     S
N35   H37    0.87956       .     S
H37   N35    0.87956       .     S
O1    H30    2.11261   1_455     S
H30   O1     2.11261   1_655     S
O2    H31    2.06261       .     S
H31   O2     2.06261       .     S
O2    H33    2.00534       .     S
H33   O2     2.00534       .     S
O3    H34    2.15158   1_545     S
H34   O3     2.15158   1_565     S
O1    H36    2.08834   1_455     S
H36   O1     2.08834   1_655     S
O3    H37    2.42180   1_545     S
H37   O3     2.42180   1_565     S
O1    S0     1.46846       .     S
S0    O1     1.46846       .     S
O2    S0     1.46465       .     S
S0    O2     1.46465       .     S
O3    S0     1.46149       .     S
S0    O3     1.46149       .     S
C4    S0     1.78150       .     S
S0    C4     1.78150       .     S
C5    C4     1.37953       .     S
C4    C5     1.37953       .     S
C12   C4     1.38434       .     S
C4    C12    1.38434       .     S
H6    C5     0.94979       .     S
C5    H6     0.94979       .     S
C7    C5     1.39045   1_565     S
C5    C7     1.39045   1_545     S
H8    C7     0.95001       .     S
C7    H8     0.95001       .     S
C9    C7     1.39151   1_545     S
C7    C9     1.39151   1_565     S
C10   C9     1.39416       .     S
C9    C10    1.39416       .     S
C14   C9     1.49934   1_566     S
C9    C14    1.49934   1_544     S
H11   C10    0.95023       .     S
C10   H11    0.95023       .     S
C12   C10    1.39001       .     S
C10   C12    1.39001       .     S
H13   C12    0.95030       .     S
C12   H13    0.95030       .     S
C15   C14    1.39151   1_545     S
C14   C15    1.39151   1_565     S
C23   C14    1.39416       .     S
C14   C23    1.39416       .     S
C16   C15    1.39045   1_565     S
C15   C16    1.39045   1_545     S
H27   C15    0.95001       .     S
C15   H27    0.95001       .     S
C17   C16    1.37953       .     S
C16   C17    1.37953       .     S
H26   C16    0.94979       .     S
C16   H26    0.94979       .     S
S18   C17    1.78150       .     S
C17   S18    1.78150       .     S
C22   C17    1.38434       .     S
C17   C22    1.38434       .     S
O19   S18    1.46846       .     S
S18   O19    1.46846       .     S
O20   S18    1.46465       .     S
S18   O20    1.46465       .     S
O21   S18    1.46149       .     S
S18   O21    1.46149       .     S
C23   C22    1.39001       .     S
C22   C23    1.39001       .     S
H25   C22    0.95030       .     S
C22   H25    0.95030       .     S
H24   C23    0.95023       .     S
C23   H24    0.95023       .     S
N29   C28    1.32983       .     S
C28   N29    1.32983       .     S
N32   C28    1.32781   1_455     S
C28   N32    1.32781   1_655     S
N35   C28    1.33643       .     S
C28   N35    1.33643       .     S
H30   N29    0.88008       .     S
N29   H30    0.88008       .     S
H31   N29    0.87987       .     S
N29   H31    0.87987       .     S
H33   N32    0.88014       .     S
N32   H33    0.88014       .     S
H34   N32    0.87970       .     S
N32   H34    0.87970       .     S
H36   N35    0.87945   1_545     S
N35   H36    0.87945   1_565     S
H37   N35    0.87956       .     S
N35   H37    0.87956       .     S
