data_I
_chemical_name_common  '/data/user2/wty/HOF/MOFDiff/mofdiff/data/test/1_10'
_cell_length_a  9.19690
_cell_length_b  9.92800
_cell_length_c 14.26220
_cell_angle_alpha 83.00100
_cell_angle_beta  83.02000
_cell_angle_gamma 80.44300
_space_group_name_H-M_alt      'P 1'


loop_
_space_group_symop_operation_xyz
  'x, y, z' 

loop_
_atom_site_label
_atom_site_fract_x
_atom_site_fract_y
_atom_site_fract_z
_atom_site_type_symbol
S0      0.2071   0.0507   0.8667     S
O1      0.2065   0.1619   0.9244     O
O2      0.3333   0.9409   0.8783     O
O3      0.0668    0.997   0.8789     O
C4      0.2289   0.1222   0.7465     C
C5      0.3505   0.0732   0.6863     C
C6      0.3629   0.1262   0.5913     C
C7      0.2537   0.2272   0.5544     C
C8      0.1345   0.2779    0.618     C
C9      0.1215   0.2263   0.7125     C
C10     0.2628   0.2765   0.4513     C
C11     0.1361   0.3412   0.4096     C
C12     0.1434   0.3906    0.314     C
C13     0.2785   0.3751   0.2583     C
C14     0.4052   0.3068   0.2975     C
C15     0.3967   0.2591   0.3931     C
S16     0.2902   0.4466   0.1376     S
O17     0.4295   0.5019   0.1203     O
O18     0.2866   0.3359   0.0802     O
O19     0.1617   0.5546   0.1302     O
H20     0.4252   0.0037   0.7097     H
H21     0.4474    0.093   0.5505     H
H22     0.0609   0.3495   0.5956     H
H23     0.0393   0.2618   0.7543     H
H24     0.0432   0.3516   0.4474     H
H25     0.0563   0.4348   0.2868     H
H26     0.4971   0.2931    0.259     H
H27     0.4839   0.2134   0.4196     H
C28     0.6459   0.1193   0.8981     C
N29     0.5256   0.2136   0.8979     N
N30     0.6329   0.9876   0.8985     N
N31     0.7777   0.1575   0.8953     N
H32     0.5336    0.301    0.896     H
H33     0.4377   0.1887   0.8997     H
H34     0.7125   0.9247    0.897     H
H35     0.5446   0.9635   0.9004     H
H36      0.785   0.2451   0.8934     H
H37      0.858   0.0954   0.8954     H
C38      0.851   0.3826   0.0973     C
N39     0.7199   0.3455   0.0955     N
N40     0.9704   0.2878   0.1006     N
N41     0.8641   0.5142   0.0982     N
H42     0.7124   0.2581   0.0966     H
H43     0.6402   0.4081   0.0933     H
H44     0.9622   0.2005   0.1016     H
H45     0.0579   0.3119   0.1018     H
H46     0.7848   0.5776   0.0977     H
H47     0.9519   0.5377   0.0994     H
C48     0.8171   0.2213   0.3657     C
C49     0.8291   0.1271   0.4452     C
C50     0.7761   0.1626   0.5361     C
C51     0.7081   0.2988   0.5464     C
C52      0.699   0.3932   0.4655     C
C53     0.7525   0.3554    0.376     C
C54     0.7914   0.0579   0.6218     C
C55     0.6458   0.3408   0.6428     C
H56      0.853   0.1941   0.3044     H
H57     0.8749   0.0354   0.4377     H
H58     0.6551   0.4856   0.4721     H
H59     0.7449   0.4213   0.3219     H
H60     0.8342   0.9679   0.6012     H
H61     0.6935   0.0527   0.6567     H
H62     0.8563   0.0853   0.6633     H
H63     0.6028   0.4382   0.6368     H
H64     0.7252   0.3258   0.6846     H
H65     0.5687   0.2857   0.6697     H
loop_
_geom_bond_atom_site_label_1
_geom_bond_atom_site_label_2
_geom_bond_distance
_geom_bond_site_symmetry_2
_ccdc_geom_bond_type
H33   O1     2.16774       .     S
O1    H33    2.16774       .     S
H35   O2     2.05840       .     S
O2    H35    2.05840       .     S
H37   O3     2.00514   1_645     S
O3    H37    2.00514   1_465     S
H43   O17    2.01924       .     S
O17   H43    2.01924       .     S
H45   O18    2.13699       .     S
O18   H45    2.13699       .     S
H47   O19    2.06775   1_655     S
O19   H47    2.06775   1_455     S
S0    O1     1.45407       .     S
O1    S0     1.45407       .     S
S0    O2     1.46471   1_545     S
O2    S0     1.46471   1_565     S
S0    O3     1.45969   1_545     S
O3    S0     1.45969   1_565     S
S0    C4     1.77486       .     S
C4    S0     1.77486       .     S
C4    C5     1.38285       .     S
C5    C4     1.38285       .     S
C4    C9     1.39076       .     S
C9    C4     1.39076       .     S
C5    C6     1.39078       .     S
C6    C5     1.39078       .     S
C5    H20    0.94955       .     S
H20   C5     0.94955       .     S
C6    C7     1.39875       .     S
C7    C6     1.39875       .     S
C6    H21    0.95025       .     S
H21   C6     0.95025       .     S
C7    C8     1.40154       .     S
C8    C7     1.40154       .     S
C7    C10    1.48897       .     S
C10   C7     1.48897       .     S
C8    C9     1.38063       .     S
C9    C8     1.38063       .     S
C8    H22    0.95026       .     S
H22   C8     0.95026       .     S
C9    H23    0.95096       .     S
H23   C9     0.95096       .     S
C10   C11    1.39675       .     S
C11   C10    1.39675       .     S
C10   C15    1.39686       .     S
C15   C10    1.39686       .     S
C11   C12    1.38917       .     S
C12   C11    1.38917       .     S
C11   H24    0.95058       .     S
H24   C11    0.95058       .     S
C12   C13    1.38743       .     S
C13   C12    1.38743       .     S
C12   H25    0.94976       .     S
H25   C12    0.94976       .     S
C13   C14    1.39059       .     S
C14   C13    1.39059       .     S
C13   S16    1.77803       .     S
S16   C13    1.77803       .     S
C14   C15    1.38508       .     S
C15   C14    1.38508       .     S
C14   H26    0.94952       .     S
H26   C14    0.94952       .     S
C15   H27    0.95021       .     S
H27   C15    0.95021       .     S
S16   O17    1.45853       .     S
O17   S16    1.45853       .     S
S16   O18    1.45502       .     S
O18   S16    1.45502       .     S
S16   O19    1.46268       .     S
O19   S16    1.46268       .     S
C28   N29    1.32543       .     S
N29   C28    1.32543       .     S
C28   N30    1.33186   1_545     S
N30   C28    1.33186   1_565     S
C28   N31    1.32360       .     S
N31   C28    1.32360       .     S
N29   H32    0.87980       .     S
H32   N29    0.87980       .     S
N29   H33    0.88038       .     S
H33   N29    0.88038       .     S
N30   H34    0.87977       .     S
H34   N30    0.87977       .     S
N30   H35    0.88037       .     S
H35   N30    0.88037       .     S
N31   H36    0.88023       .     S
H36   N31    0.88023       .     S
N31   H37    0.87998       .     S
H37   N31    0.87998       .     S
C38   N39    1.32188       .     S
N39   C38    1.32188       .     S
C38   N40    1.32380       .     S
N40   C38    1.32380       .     S
C38   N41    1.33357       .     S
N41   C38    1.33357       .     S
N39   H42    0.87989       .     S
H42   N39    0.87989       .     S
N39   H43    0.87982       .     S
H43   N39    0.87982       .     S
N40   H44    0.88063       .     S
H44   N40    0.88063       .     S
N40   H45    0.87944   1_655     S
H45   N40    0.87944   1_455     S
N41   H46    0.88084       .     S
H46   N41    0.88084       .     S
N41   H47    0.87958       .     S
H47   N41    0.87958       .     S
C48   C49    1.38208       .     S
C49   C48    1.38208       .     S
C48   C53    1.38233       .     S
C53   C48    1.38233       .     S
C48   H56    0.95082       .     S
H56   C48    0.95082       .     S
C49   C50    1.39401       .     S
C50   C49    1.39401       .     S
C49   H57    0.95033       .     S
H57   C49    0.95033       .     S
C50   C51    1.40940       .     S
C51   C50    1.40940       .     S
C50   C54    1.50925       .     S
C54   C50    1.50925       .     S
C51   C52    1.39661       .     S
C52   C51    1.39661       .     S
C51   C55    1.50378       .     S
C55   C51    1.50378       .     S
C52   C53    1.38386       .     S
C53   C52    1.38386       .     S
C52   H58    0.94985       .     S
H58   C52    0.94985       .     S
C53   H59    0.95036       .     S
H59   C53    0.95036       .     S
C54   H60    0.97914   1_545     S
H60   C54    0.97914   1_565     S
C54   H61    0.98048       .     S
H61   C54    0.98048       .     S
C54   H62    0.97959       .     S
H62   C54    0.97959       .     S
C55   H63    0.97972       .     S
H63   C55    0.97972       .     S
C55   H64    0.97923       .     S
H64   C55    0.97923       .     S
C55   H65    0.98019       .     S
H65   C55    0.98019       .     S
O1    H33    2.16774       .     S
H33   O1     2.16774       .     S
O2    H35    2.05840       .     S
H35   O2     2.05840       .     S
O3    H37    2.00514   1_465     S
H37   O3     2.00514   1_645     S
O17   H43    2.01924       .     S
H43   O17    2.01924       .     S
O18   H45    2.13699       .     S
H45   O18    2.13699       .     S
O19   H47    2.06775   1_455     S
H47   O19    2.06775   1_655     S
O1    S0     1.45407       .     S
S0    O1     1.45407       .     S
O2    S0     1.46471   1_565     S
S0    O2     1.46471   1_545     S
O3    S0     1.45969   1_565     S
S0    O3     1.45969   1_545     S
C4    S0     1.77486       .     S
S0    C4     1.77486       .     S
C5    C4     1.38285       .     S
C4    C5     1.38285       .     S
C9    C4     1.39076       .     S
C4    C9     1.39076       .     S
C6    C5     1.39078       .     S
C5    C6     1.39078       .     S
H20   C5     0.94955       .     S
C5    H20    0.94955       .     S
C7    C6     1.39875       .     S
C6    C7     1.39875       .     S
H21   C6     0.95025       .     S
C6    H21    0.95025       .     S
C8    C7     1.40154       .     S
C7    C8     1.40154       .     S
C10   C7     1.48897       .     S
C7    C10    1.48897       .     S
C9    C8     1.38063       .     S
C8    C9     1.38063       .     S
H22   C8     0.95026       .     S
C8    H22    0.95026       .     S
H23   C9     0.95096       .     S
C9    H23    0.95096       .     S
C11   C10    1.39675       .     S
C10   C11    1.39675       .     S
C15   C10    1.39686       .     S
C10   C15    1.39686       .     S
C12   C11    1.38917       .     S
C11   C12    1.38917       .     S
H24   C11    0.95058       .     S
C11   H24    0.95058       .     S
C13   C12    1.38743       .     S
C12   C13    1.38743       .     S
H25   C12    0.94976       .     S
C12   H25    0.94976       .     S
C14   C13    1.39059       .     S
C13   C14    1.39059       .     S
S16   C13    1.77803       .     S
C13   S16    1.77803       .     S
C15   C14    1.38508       .     S
C14   C15    1.38508       .     S
H26   C14    0.94952       .     S
C14   H26    0.94952       .     S
H27   C15    0.95021       .     S
C15   H27    0.95021       .     S
O17   S16    1.45853       .     S
S16   O17    1.45853       .     S
O18   S16    1.45502       .     S
S16   O18    1.45502       .     S
O19   S16    1.46268       .     S
S16   O19    1.46268       .     S
N29   C28    1.32543       .     S
C28   N29    1.32543       .     S
N30   C28    1.33186   1_565     S
C28   N30    1.33186   1_545     S
N31   C28    1.32360       .     S
C28   N31    1.32360       .     S
H32   N29    0.87980       .     S
N29   H32    0.87980       .     S
H33   N29    0.88038       .     S
N29   H33    0.88038       .     S
H34   N30    0.87977       .     S
N30   H34    0.87977       .     S
H35   N30    0.88037       .     S
N30   H35    0.88037       .     S
H36   N31    0.88023       .     S
N31   H36    0.88023       .     S
H37   N31    0.87998       .     S
N31   H37    0.87998       .     S
N39   C38    1.32188       .     S
C38   N39    1.32188       .     S
N40   C38    1.32380       .     S
C38   N40    1.32380       .     S
N41   C38    1.33357       .     S
C38   N41    1.33357       .     S
H42   N39    0.87989       .     S
N39   H42    0.87989       .     S
H43   N39    0.87982       .     S
N39   H43    0.87982       .     S
H44   N40    0.88063       .     S
N40   H44    0.88063       .     S
H45   N40    0.87944   1_455     S
N40   H45    0.87944   1_655     S
H46   N41    0.88084       .     S
N41   H46    0.88084       .     S
H47   N41    0.87958       .     S
N41   H47    0.87958       .     S
C49   C48    1.38208       .     S
C48   C49    1.38208       .     S
C53   C48    1.38233       .     S
C48   C53    1.38233       .     S
H56   C48    0.95082       .     S
C48   H56    0.95082       .     S
C50   C49    1.39401       .     S
C49   C50    1.39401       .     S
H57   C49    0.95033       .     S
C49   H57    0.95033       .     S
C51   C50    1.40940       .     S
C50   C51    1.40940       .     S
C54   C50    1.50925       .     S
C50   C54    1.50925       .     S
C52   C51    1.39661       .     S
C51   C52    1.39661       .     S
C55   C51    1.50378       .     S
C51   C55    1.50378       .     S
C53   C52    1.38386       .     S
C52   C53    1.38386       .     S
H58   C52    0.94985       .     S
C52   H58    0.94985       .     S
H59   C53    0.95036       .     S
C53   H59    0.95036       .     S
H60   C54    0.97914   1_565     S
C54   H60    0.97914   1_545     S
H61   C54    0.98048       .     S
C54   H61    0.98048       .     S
H62   C54    0.97959       .     S
C54   H62    0.97959       .     S
H63   C55    0.97972       .     S
C55   H63    0.97972       .     S
H64   C55    0.97923       .     S
C55   H64    0.97923       .     S
H65   C55    0.98019       .     S
C55   H65    0.98019       .     S
