data_I
_chemical_name_common  '/data/user2/wty/HOF/MOFDiff/mofdiff/data/test/1_11'
_cell_length_a  7.28250
_cell_length_b 12.36280
_cell_length_c 14.02970
_cell_angle_alpha 91.67200
_cell_angle_beta  97.22200
_cell_angle_gamma 94.15700
_space_group_name_H-M_alt      'P 1'


loop_
_space_group_symop_operation_xyz
  'x, y, z' 

loop_
_atom_site_label
_atom_site_fract_x
_atom_site_fract_y
_atom_site_fract_z
_atom_site_type_symbol
S0      0.7508   0.9174   0.8621     S
O1      0.7308   0.7994   0.8691     O
O2      0.6369   0.9734   0.9235     O
O3      0.9454   0.9595   0.8758     O
C4      0.6655   0.9448   0.7417     C
C5      0.5534   0.8674   0.6846     C
C6      0.4882   0.8897     0.59     C
C7      0.5336   0.9888   0.5509     C
C8      0.6448   0.0656    0.611     C
C9      0.7104   0.0449   0.7051     C
H10     0.5206    0.799   0.7097     H
H11     0.4109   0.8359   0.5513     H
H12     0.6767   0.1344   0.5866     H
H13     0.7858    0.099   0.7444     H
C14     0.4664   0.0112   0.4491     C
C15     0.5118   0.1103     0.41     C
C16     0.4466   0.1326   0.3154     C
C17     0.3345   0.0552   0.2583     C
S18     0.2492   0.0826   0.1379     S
O19     0.2692   0.2006   0.1309     O
O20     0.3631   0.0266   0.0765     O
O21     0.0546   0.0405   0.1242     O
C22     0.2896   0.9551   0.2949     C
C23     0.3552   0.9344    0.389     C
H24     0.3233   0.8656   0.4134     H
H25     0.2142    0.901   0.2556     H
H26     0.4794    0.201   0.2903     H
H27     0.5891   0.1641   0.4487     H
C28      0.237   0.2325   0.8983     C
N29     0.3829   0.1738   0.8982     N
N30     0.2612   0.3396   0.8979     N
N31     0.0682   0.1856   0.8994     N
H32      0.368   0.1026   0.8989     H
H33     0.4944   0.2062   0.8974     H
H34     0.1654    0.379   0.8984     H
H35      0.373   0.3714   0.8971     H
H36     0.9731   0.2256   0.8999     H
H37      0.051   0.1144   0.8996     H
C38     0.2442   0.7316   0.9022     C
N39     0.3894    0.672   0.8997     N
N40     0.2704   0.8394   0.9023     N
N41     0.0755   0.6851   0.9022     N
H42     0.3732   0.6007    0.898     H
H43     0.5013   0.7041   0.8997     H
H44     0.1752   0.8793   0.9023     H
H45     0.3829   0.8706   0.9023     H
H46     0.9805   0.7253   0.9022     H
H47     0.0577    0.614   0.9022     H
S48     0.7427   0.4194   0.8631     S
O49     0.7246   0.3014     0.87     O
O50      0.937   0.4622   0.8751     O
O51     0.6315   0.4748    0.926     O
C52     0.6518    0.447   0.7437     C
C53     0.5581   0.3657   0.6836     C
C54     0.4976    0.387   0.5882     C
C55     0.5295   0.4894   0.5513     C
C56     0.6211   0.5703   0.6153     C
C57     0.6812   0.5499   0.7101     C
H58     0.5346   0.2954    0.707     H
H59      0.433   0.3304   0.5472     H
H60     0.6426   0.6414   0.5931     H
H61     0.7428   0.6066    0.752     H
C62     0.4705   0.5106   0.4487     C
C63     0.5024    0.613   0.4118     C
C64     0.4419   0.6343   0.3164     C
C65     0.3482    0.553   0.2563     C
S66     0.2573   0.5806   0.1369     S
O67     0.2754   0.6986     0.13     O
O68      0.063   0.5378   0.1249     O
O69     0.3685   0.5252    0.074     O
C70     0.3188   0.4501   0.2899     C
C71     0.3789   0.4297   0.3847     C
H72     0.3574   0.3586   0.4069     H
H73     0.2572   0.3934    0.248     H
H74     0.4654   0.7046    0.293     H
H75      0.567   0.6696   0.4528     H
Cl76     0.971   0.6342   0.3471    Cl
Cl77    0.8294   0.8651   0.3821    Cl
C78     0.0028   0.6947   0.4608     C
C79     0.9387   0.7971   0.4767     C
C80     0.9626   0.8433   0.5683     C
C81     0.0464   0.7913   0.6444     C
C82     0.1126   0.6871   0.6287     C
C83     0.0899   0.6425   0.5376     C
H84     0.9197   0.9129   0.5787     H
H85     0.0607    0.824   0.7072     H
H86     0.1713   0.6496   0.6808     H
H87     0.1352   0.5736   0.5266     H
loop_
_geom_bond_atom_site_label_1
_geom_bond_atom_site_label_2
_geom_bond_distance
_geom_bond_site_symmetry_2
_ccdc_geom_bond_type
H33   O49    2.06053       .     S
O49   H33    2.06053       .     S
H34   O50    2.01555   1_455     S
O50   H34    2.01555   1_655     S
H35   O51    2.18434       .     S
O51   H35    2.18434       .     S
H36   O49    2.09930       .     S
O49   H36    2.09930       .     S
H37   O3     2.01364   1_445     S
O3    H37    2.01364   1_665     S
H42   O51    2.52779       .     S
O51   H42    2.52779       .     S
H43   O1     2.07128       .     S
O1    H43    2.07128       .     S
H44   O3     2.00689   1_455     S
O3    H44    2.00689   1_655     S
H45   O2     2.15035       .     S
O2    H45    2.15035       .     S
H46   O1     2.10133       .     S
O1    H46    2.10133       .     S
H47   O50    2.01848   1_455     S
O50   H47    2.01848   1_655     S
S0    O1     1.46292       .     S
O1    S0     1.46292       .     S
S0    O2     1.46202       .     S
O2    S0     1.46202       .     S
S0    O3     1.46115       .     S
O3    S0     1.46115       .     S
S0    C4     1.77596       .     S
C4    S0     1.77596       .     S
C4    C5     1.37892       .     S
C5    C4     1.37892       .     S
C4    C9     1.38660   1_565     S
C9    C4     1.38660   1_545     S
C5    C6     1.39457       .     S
C6    C5     1.39457       .     S
C5    H10    0.95151       .     S
H10   C5     0.95151       .     S
C6    C7     1.39188       .     S
C7    C6     1.39188       .     S
C6    H11    0.94967       .     S
H11   C6     0.94967       .     S
C7    C8     1.39225   1_565     S
C8    C7     1.39225   1_545     S
C7    C14    1.49097   1_565     S
C14   C7     1.49097   1_545     S
C8    C9     1.38401       .     S
C9    C8     1.38401       .     S
C8    H12    0.95024       .     S
H12   C8     0.95024       .     S
C9    H13    0.94972       .     S
H13   C9     0.94972       .     S
C14   C15    1.39188       .     S
C15   C14    1.39188       .     S
C14   C23    1.39225   1_545     S
C23   C14    1.39225   1_565     S
C15   C16    1.39457       .     S
C16   C15    1.39457       .     S
C15   H27    0.94967       .     S
H27   C15    0.94967       .     S
C16   C17    1.37892       .     S
C17   C16    1.37892       .     S
C16   H26    0.95151       .     S
H26   C16    0.95151       .     S
C17   S18    1.77596       .     S
S18   C17    1.77596       .     S
C17   C22    1.38660   1_545     S
C22   C17    1.38660   1_565     S
S18   O19    1.46292       .     S
O19   S18    1.46292       .     S
S18   O20    1.46202       .     S
O20   S18    1.46202       .     S
S18   O21    1.46115       .     S
O21   S18    1.46115       .     S
C22   C23    1.38401       .     S
C23   C22    1.38401       .     S
C22   H25    0.94972       .     S
H25   C22    0.94972       .     S
C23   H24    0.95024       .     S
H24   C23    0.95024       .     S
C28   N29    1.32954       .     S
N29   C28    1.32954       .     S
C28   N30    1.32328       .     S
N30   C28    1.32328       .     S
C28   N31    1.32270       .     S
N31   C28    1.32270       .     S
N29   H32    0.87955       .     S
H32   N29    0.87955       .     S
N29   H33    0.88052       .     S
H33   N29    0.88052       .     S
N30   H34    0.87997       .     S
H34   N30    0.87997       .     S
N30   H35    0.87962       .     S
H35   N30    0.87962       .     S
N31   H36    0.88029   1_455     S
H36   N31    0.88029   1_655     S
N31   H37    0.88020       .     S
H37   N31    0.88020       .     S
C38   N39    1.33531       .     S
N39   C38    1.33531       .     S
C38   N40    1.33247       .     S
N40   C38    1.33247       .     S
C38   N41    1.31812       .     S
N41   C38    1.31812       .     S
N39   H42    0.88003       .     S
H42   N39    0.88003       .     S
N39   H43    0.88016       .     S
H43   N39    0.88016       .     S
N40   H44    0.87952       .     S
H44   N40    0.87952       .     S
N40   H45    0.87988       .     S
H45   N40    0.87988       .     S
N41   H46    0.88061   1_455     S
H46   N41    0.88061   1_655     S
N41   H47    0.87916       .     S
H47   N41    0.87916       .     S
S48   O49    1.46234       .     S
O49   S48    1.46234       .     S
S48   O50    1.46180       .     S
O50   S48    1.46180       .     S
S48   O51    1.45892       .     S
O51   S48    1.45892       .     S
S48   C52    1.77427       .     S
C52   S48    1.77427       .     S
C52   C53    1.37596       .     S
C53   C52    1.37596       .     S
C52   C57    1.38104       .     S
C57   C52    1.38104       .     S
C53   C54    1.39427       .     S
C54   C53    1.39427       .     S
C53   H58    0.94954       .     S
H58   C53    0.94954       .     S
C54   C55    1.39659       .     S
C55   C54    1.39659       .     S
C54   H59    0.95004       .     S
H59   C54    0.95004       .     S
C55   C56    1.39706       .     S
C56   C55    1.39706       .     S
C55   C62    1.48598       .     S
C62   C55    1.48598       .     S
C56   C57    1.38323       .     S
C57   C56    1.38323       .     S
C56   H60    0.94997       .     S
H60   C56    0.94997       .     S
C57   H61    0.94986       .     S
H61   C57    0.94986       .     S
C62   C63    1.39659       .     S
C63   C62    1.39659       .     S
C62   C71    1.39706       .     S
C71   C62    1.39706       .     S
C63   C64    1.39427       .     S
C64   C63    1.39427       .     S
C63   H75    0.95004       .     S
H75   C63    0.95004       .     S
C64   C65    1.37596       .     S
C65   C64    1.37596       .     S
C64   H74    0.94954       .     S
H74   C64    0.94954       .     S
C65   S66    1.77427       .     S
S66   C65    1.77427       .     S
C65   C70    1.38104       .     S
C70   C65    1.38104       .     S
S66   O67    1.46234       .     S
O67   S66    1.46234       .     S
S66   O68    1.46180       .     S
O68   S66    1.46180       .     S
S66   O69    1.45892       .     S
O69   S66    1.45892       .     S
C70   C71    1.38323       .     S
C71   C70    1.38323       .     S
C70   H73    0.94986       .     S
H73   C70    0.94986       .     S
C71   H72    0.94997       .     S
H72   C71    0.94997       .     S
Cl76  C78    1.72338   1_655     S
C78   Cl76   1.72338   1_455     S
Cl77  C79    1.73156       .     S
C79   Cl77   1.73156       .     S
C78   C79    1.40203   1_455     S
C79   C78    1.40203   1_655     S
C78   C83    1.38125       .     S
C83   C78    1.38125       .     S
C79   C80    1.37643       .     S
C80   C79    1.37643       .     S
C80   C81    1.36335   1_655     S
C81   C80    1.36335   1_455     S
C80   H84    0.94994       .     S
H84   C80    0.94994       .     S
C81   C82    1.42849       .     S
C82   C81    1.42849       .     S
C81   H85    0.94899       .     S
H85   C81    0.94899       .     S
C82   C83    1.36288       .     S
C83   C82    1.36288       .     S
C82   H86    0.94968       .     S
H86   C82    0.94968       .     S
C83   H87    0.95083       .     S
H87   C83    0.95083       .     S
O49   H33    2.06053       .     S
H33   O49    2.06053       .     S
O50   H34    2.01555   1_655     S
H34   O50    2.01555   1_455     S
O51   H35    2.18434       .     S
H35   O51    2.18434       .     S
O49   H36    2.09930       .     S
H36   O49    2.09930       .     S
O3    H37    2.01364   1_665     S
H37   O3     2.01364   1_445     S
O51   H42    2.52779       .     S
H42   O51    2.52779       .     S
O1    H43    2.07128       .     S
H43   O1     2.07128       .     S
O3    H44    2.00689   1_655     S
H44   O3     2.00689   1_455     S
O2    H45    2.15035       .     S
H45   O2     2.15035       .     S
O1    H46    2.10133       .     S
H46   O1     2.10133       .     S
O50   H47    2.01848   1_655     S
H47   O50    2.01848   1_455     S
O1    S0     1.46292       .     S
S0    O1     1.46292       .     S
O2    S0     1.46202       .     S
S0    O2     1.46202       .     S
O3    S0     1.46115       .     S
S0    O3     1.46115       .     S
C4    S0     1.77596       .     S
S0    C4     1.77596       .     S
C5    C4     1.37892       .     S
C4    C5     1.37892       .     S
C9    C4     1.38660   1_545     S
C4    C9     1.38660   1_565     S
C6    C5     1.39457       .     S
C5    C6     1.39457       .     S
H10   C5     0.95151       .     S
C5    H10    0.95151       .     S
C7    C6     1.39188       .     S
C6    C7     1.39188       .     S
H11   C6     0.94967       .     S
C6    H11    0.94967       .     S
C8    C7     1.39225   1_545     S
C7    C8     1.39225   1_565     S
C14   C7     1.49097   1_545     S
C7    C14    1.49097   1_565     S
C9    C8     1.38401       .     S
C8    C9     1.38401       .     S
H12   C8     0.95024       .     S
C8    H12    0.95024       .     S
H13   C9     0.94972       .     S
C9    H13    0.94972       .     S
C15   C14    1.39188       .     S
C14   C15    1.39188       .     S
C23   C14    1.39225   1_565     S
C14   C23    1.39225   1_545     S
C16   C15    1.39457       .     S
C15   C16    1.39457       .     S
H27   C15    0.94967       .     S
C15   H27    0.94967       .     S
C17   C16    1.37892       .     S
C16   C17    1.37892       .     S
H26   C16    0.95151       .     S
C16   H26    0.95151       .     S
S18   C17    1.77596       .     S
C17   S18    1.77596       .     S
C22   C17    1.38660   1_565     S
C17   C22    1.38660   1_545     S
O19   S18    1.46292       .     S
S18   O19    1.46292       .     S
O20   S18    1.46202       .     S
S18   O20    1.46202       .     S
O21   S18    1.46115       .     S
S18   O21    1.46115       .     S
C23   C22    1.38401       .     S
C22   C23    1.38401       .     S
H25   C22    0.94972       .     S
C22   H25    0.94972       .     S
H24   C23    0.95024       .     S
C23   H24    0.95024       .     S
N29   C28    1.32954       .     S
C28   N29    1.32954       .     S
N30   C28    1.32328       .     S
C28   N30    1.32328       .     S
N31   C28    1.32270       .     S
C28   N31    1.32270       .     S
H32   N29    0.87955       .     S
N29   H32    0.87955       .     S
H33   N29    0.88052       .     S
N29   H33    0.88052       .     S
H34   N30    0.87997       .     S
N30   H34    0.87997       .     S
H35   N30    0.87962       .     S
N30   H35    0.87962       .     S
H36   N31    0.88029   1_655     S
N31   H36    0.88029   1_455     S
H37   N31    0.88020       .     S
N31   H37    0.88020       .     S
N39   C38    1.33531       .     S
C38   N39    1.33531       .     S
N40   C38    1.33247       .     S
C38   N40    1.33247       .     S
N41   C38    1.31812       .     S
C38   N41    1.31812       .     S
H42   N39    0.88003       .     S
N39   H42    0.88003       .     S
H43   N39    0.88016       .     S
N39   H43    0.88016       .     S
H44   N40    0.87952       .     S
N40   H44    0.87952       .     S
H45   N40    0.87988       .     S
N40   H45    0.87988       .     S
H46   N41    0.88061   1_655     S
N41   H46    0.88061   1_455     S
H47   N41    0.87916       .     S
N41   H47    0.87916       .     S
O49   S48    1.46234       .     S
S48   O49    1.46234       .     S
O50   S48    1.46180       .     S
S48   O50    1.46180       .     S
O51   S48    1.45892       .     S
S48   O51    1.45892       .     S
C52   S48    1.77427       .     S
S48   C52    1.77427       .     S
C53   C52    1.37596       .     S
C52   C53    1.37596       .     S
C57   C52    1.38104       .     S
C52   C57    1.38104       .     S
C54   C53    1.39427       .     S
C53   C54    1.39427       .     S
H58   C53    0.94954       .     S
C53   H58    0.94954       .     S
C55   C54    1.39659       .     S
C54   C55    1.39659       .     S
H59   C54    0.95004       .     S
C54   H59    0.95004       .     S
C56   C55    1.39706       .     S
C55   C56    1.39706       .     S
C62   C55    1.48598       .     S
C55   C62    1.48598       .     S
C57   C56    1.38323       .     S
C56   C57    1.38323       .     S
H60   C56    0.94997       .     S
C56   H60    0.94997       .     S
H61   C57    0.94986       .     S
C57   H61    0.94986       .     S
C63   C62    1.39659       .     S
C62   C63    1.39659       .     S
C71   C62    1.39706       .     S
C62   C71    1.39706       .     S
C64   C63    1.39427       .     S
C63   C64    1.39427       .     S
H75   C63    0.95004       .     S
C63   H75    0.95004       .     S
C65   C64    1.37596       .     S
C64   C65    1.37596       .     S
H74   C64    0.94954       .     S
C64   H74    0.94954       .     S
S66   C65    1.77427       .     S
C65   S66    1.77427       .     S
C70   C65    1.38104       .     S
C65   C70    1.38104       .     S
O67   S66    1.46234       .     S
S66   O67    1.46234       .     S
O68   S66    1.46180       .     S
S66   O68    1.46180       .     S
O69   S66    1.45892       .     S
S66   O69    1.45892       .     S
C71   C70    1.38323       .     S
C70   C71    1.38323       .     S
H73   C70    0.94986       .     S
C70   H73    0.94986       .     S
H72   C71    0.94997       .     S
C71   H72    0.94997       .     S
C78   Cl76   1.72338   1_455     S
Cl76  C78    1.72338   1_655     S
C79   Cl77   1.73156       .     S
Cl77  C79    1.73156       .     S
C79   C78    1.40203   1_655     S
C78   C79    1.40203   1_455     S
C83   C78    1.38125       .     S
C78   C83    1.38125       .     S
C80   C79    1.37643       .     S
C79   C80    1.37643       .     S
C81   C80    1.36335   1_455     S
C80   C81    1.36335   1_655     S
H84   C80    0.94994       .     S
C80   H84    0.94994       .     S
C82   C81    1.42849       .     S
C81   C82    1.42849       .     S
H85   C81    0.94899       .     S
C81   H85    0.94899       .     S
C83   C82    1.36288       .     S
C82   C83    1.36288       .     S
H86   C82    0.94968       .     S
C82   H86    0.94968       .     S
H87   C83    0.95083       .     S
C83   H87    0.95083       .     S
