data_I
_chemical_name_common  '/data/user2/wty/HOF/MOFDiff/mofdiff/data/test/1_12'
_cell_length_a  7.27300
_cell_length_b 12.35950
_cell_length_c 14.08960
_cell_angle_alpha 90.56900
_cell_angle_beta  98.41600
_cell_angle_gamma 94.89700
_space_group_name_H-M_alt      'P 1'


loop_
_space_group_symop_operation_xyz
  'x, y, z' 

loop_
_atom_site_label
_atom_site_fract_x
_atom_site_fract_y
_atom_site_fract_z
_atom_site_type_symbol
S0      0.7538   0.0815   0.1377     S
O1      0.7762   0.1969   0.1288     O
O2      0.8652   0.0264    0.078     O
O3      0.5591    0.038   0.1235     O
C4      0.8429   0.0549   0.2575     C
C5      0.8003   0.9534   0.2957     C
C6      0.8606   0.9319    0.389     C
C7       0.968   0.0113   0.4491     C
C8      0.0112   0.1116   0.4098     C
C9      0.9483   0.1302   0.3163     C
H10     0.7278   0.8984   0.2557     H
H11     0.8295   0.8624   0.4134     H
H12      0.085   0.1672   0.4486     H
H13     0.9799   0.1993   0.2913     H
C14      0.032   0.9887   0.5509     C
C15     0.1394   0.0681    0.611     C
C16     0.1997   0.0466   0.7043     C
C17     0.1571   0.9451   0.7425     C
S18     0.2462   0.9185   0.8623     S
O19     0.2238   0.8031   0.8712     O
O20     0.1348   0.9736    0.922     O
O21     0.4409    0.962   0.8765     O
C22     0.0517   0.8698   0.6837     C
C23     0.9888   0.8884   0.5902     C
H24      0.915   0.8328   0.5514     H
H25     0.0201   0.8007   0.7087     H
H26     0.2722   0.1016   0.7443     H
H27     0.1705   0.1376   0.5866     H
C28     0.2681    0.767    0.098     C
N29     0.1266   0.8248   0.0997     N
N30     0.2408   0.6597   0.0978     N
N31     0.4391   0.8126   0.0975     N
H32     0.1437   0.8962   0.1006     H
H33     0.0141   0.7924      0.1     H
H34     0.1281    0.628   0.0988     H
H35     0.3354   0.6201   0.0966     H
H36     0.4598   0.8839   0.0983     H
H37     0.5321   0.7718   0.0963     H
C38     0.2632   0.2669   0.0981     C
N39     0.1183   0.3257   0.1006     N
N40     0.4333   0.3138   0.0984     N
N41     0.2351    0.159   0.0975     N
H42     0.1353   0.3971   0.1026     H
H43     0.0058   0.2931   0.1003     H
H44     0.5277   0.2738   0.0983     H
H45     0.4523   0.3851   0.0988     H
H46     0.3298   0.1192   0.0974     H
H47     0.1218   0.1276   0.0973     H
S48     0.7611   0.5795   0.1359     S
O49     0.7827   0.6976   0.1271     O
O50     0.8721   0.5246   0.0759     O
O51     0.5653   0.5382   0.1235     O
C52     0.8522   0.5518   0.2561     C
C53     0.8181   0.4499   0.2895     C
C54     0.8819   0.4299   0.3849     C
C55     0.9705   0.5117   0.4488     C
C56     0.0019   0.6104   0.4108     C
C57     0.9411   0.6348   0.3158     C
H58      0.752   0.3938   0.2484     H
H59     0.8647   0.3581   0.4075     H
H60     0.0695   0.6665   0.4515     H
H61     0.9604   0.7063    0.293     H
C62     0.0295   0.4883   0.5512     C
C63     0.1181   0.5701   0.6151     C
C64     0.1819   0.5501   0.7105     C
C65     0.1478   0.4482   0.7439     C
S66     0.2389   0.4205   0.8641     S
O67     0.2173   0.3024   0.8729     O
O68     0.1279   0.4754   0.9241     O
O69     0.4347   0.4618   0.8765     O
C70     0.0589   0.3652   0.6842     C
C71     0.9981   0.3896   0.5892     C
H72     0.9305   0.3335   0.5485     H
H73     0.0396   0.2937    0.707     H
H74      0.248   0.6062   0.7516     H
H75     0.1353   0.6419   0.5925     H
Br76    0.3201   0.8722    0.373    Br
H77     0.3351   0.8467   0.3156     H
C78       0.44   0.7962   0.4761     C
C79     0.4637   0.8426   0.5678     C
C80     0.5491   0.7876   0.6453     C
C81     0.6109   0.6861   0.6312     C
C82     0.5873   0.6397   0.5395     C
C83     0.5019   0.6948   0.4619     C
H84     0.4214    0.912   0.5775     H
H85     0.6295   0.5703   0.5298     H
C86     0.5683   0.7003   0.5236     C
C87     0.5482   0.6549   0.4316     C
C88     0.4613   0.7094   0.3541     C
C89     0.3945   0.8094   0.3686     C
C90     0.4145   0.8549   0.4606     C
C91     0.5014   0.8003   0.5381     C
H92     0.5939   0.5865   0.4217     H
H93     0.3688   0.9232   0.4704     H
H94     0.6693   0.6485   0.6842     H
Br95    0.6782   0.6272   0.6279    Br
Br96    0.4689   0.6297   0.3393    Br
H97     0.4476   0.6784   0.2913     H
H98     0.5653   0.8193    0.708     H
Br99    0.5272   0.8683   0.6607    Br
loop_
_geom_bond_atom_site_label_1
_geom_bond_atom_site_label_2
_geom_bond_distance
_geom_bond_site_symmetry_2
_ccdc_geom_bond_type
H33   O49    2.05216   1_455     S
O49   H33    2.05216   1_655     S
H34   O50    2.14794   1_455     S
O50   H34    2.14794   1_655     S
H35   O51    2.01870       .     S
O51   H35    2.01870       .     S
H36   O3     1.98792   1_565     S
O3    H36    1.98792   1_545     S
H37   O49    2.10072       .     S
O49   H37    2.10072       .     S
H42   O50    2.57005   1_455     S
O50   H42    2.57005   1_655     S
H43   O1     2.05675   1_455     S
O1    H43    2.05675   1_655     S
H44   O1     2.10441       .     S
O1    H44    2.10441       .     S
H45   O51    2.00370       .     S
O51   H45    2.00370       .     S
H46   O3     2.00928       .     S
O3    H46    2.00928       .     S
H47   O2     2.13716   1_455     S
O2    H47    2.13716   1_655     S
H84   Br76   2.89403       .     S
Br76  H84    2.89403       .     S
H85   Br96   2.89402       .     S
Br96  H85    2.89402       .     S
H92   Br95   2.90972       .     S
Br95  H92    2.90972       .     S
H93   Br99   2.87091       .     S
Br99  H93    2.87091       .     S
H97   Br76   2.92561       .     S
Br76  H97    2.92561       .     S
H98   Br95   2.85235       .     S
Br95  H98    2.85235       .     S
S0    O1     1.43053       .     S
O1    S0     1.43053       .     S
S0    O2     1.45261       .     S
O2    S0     1.45261       .     S
S0    O3     1.45576       .     S
O3    S0     1.45576       .     S
S0    C4     1.76192       .     S
C4    S0     1.76192       .     S
C4    C5     1.39832   1_545     S
C5    C4     1.39832   1_565     S
C4    C9     1.34801       .     S
C9    C4     1.34801       .     S
C5    C6     1.35981       .     S
C6    C5     1.35981       .     S
C5    H10    0.94972       .     S
H10   C5     0.94972       .     S
C6    C7     1.39615   1_565     S
C7    C6     1.39615   1_545     S
C6    H11    0.95009       .     S
H11   C6     0.95009       .     S
C7    C8     1.39289   1_655     S
C8    C7     1.39289   1_455     S
C7    C14    1.47875   1_645     S
C14   C7     1.47875   1_465     S
C8    C9     1.35837   1_455     S
C9    C8     1.35837   1_655     S
C8    H12    0.95019       .     S
H12   C8     0.95019       .     S
C9    H13    0.94997       .     S
H13   C9     0.94997       .     S
C14   C15    1.39615   1_565     S
C15   C14    1.39615   1_545     S
C14   C23    1.39289   1_455     S
C23   C14    1.39289   1_655     S
C15   C16    1.35981       .     S
C16   C15    1.35981       .     S
C15   H27    0.95009       .     S
H27   C15    0.95009       .     S
C16   C17    1.39832   1_545     S
C17   C16    1.39832   1_565     S
C16   H26    0.94972       .     S
H26   C16    0.94972       .     S
C17   S18    1.76192       .     S
S18   C17    1.76192       .     S
C17   C22    1.34801       .     S
C22   C17    1.34801       .     S
S18   O19    1.43053       .     S
O19   S18    1.43053       .     S
S18   O20    1.45261       .     S
O20   S18    1.45261       .     S
S18   O21    1.45576       .     S
O21   S18    1.45576       .     S
C22   C23    1.35837   1_455     S
C23   C22    1.35837   1_655     S
C22   H25    0.94997       .     S
H25   C22    0.94997       .     S
C23   H24    0.95019       .     S
H24   C23    0.95019       .     S
C28   N29    1.30477       .     S
N29   C28    1.30477       .     S
C28   N30    1.32400       .     S
N30   C28    1.32400       .     S
C28   N31    1.32190       .     S
N31   C28    1.32190       .     S
N29   H32    0.88032       .     S
H32   N29    0.88032       .     S
N29   H33    0.88031       .     S
H33   N29    0.88031       .     S
N30   H34    0.87990       .     S
H34   N30    0.87990       .     S
N30   H35    0.87974       .     S
H35   N30    0.87974       .     S
N31   H36    0.88092       .     S
H36   N31    0.88092       .     S
N31   H37    0.87948       .     S
H37   N31    0.87948       .     S
C38   N39    1.33459       .     S
N39   C38    1.33459       .     S
C38   N40    1.32005       .     S
N40   C38    1.32005       .     S
C38   N41    1.33156       .     S
N41   C38    1.33156       .     S
N39   H42    0.88016       .     S
H42   N39    0.88016       .     S
N39   H43    0.88006       .     S
H43   N39    0.88006       .     S
N40   H44    0.87978       .     S
H44   N40    0.87978       .     S
N40   H45    0.88010       .     S
H45   N40    0.88010       .     S
N41   H46    0.88004       .     S
H46   N41    0.88004       .     S
N41   H47    0.87997       .     S
H47   N41    0.87997       .     S
S48   O49    1.46315       .     S
O49   S48    1.46315       .     S
S48   O50    1.45214       .     S
O50   S48    1.45214       .     S
S48   O51    1.45613       .     S
O51   S48    1.45613       .     S
S48   C52    1.77374       .     S
C52   S48    1.77374       .     S
C52   C53    1.36446       .     S
C53   C52    1.36446       .     S
C52   C57    1.37417       .     S
C57   C52    1.37417       .     S
C53   C54    1.38808       .     S
C54   C53    1.38808       .     S
C53   H58    0.94912       .     S
H58   C53    0.94912       .     S
C54   C55    1.39600       .     S
C55   C54    1.39600       .     S
C54   H59    0.95019       .     S
H59   C54    0.95019       .     S
C55   C56    1.35208   1_655     S
C56   C55    1.35208   1_455     S
C55   C62    1.48244   1_655     S
C62   C55    1.48244   1_455     S
C56   C57    1.39127   1_455     S
C57   C56    1.39127   1_655     S
C56   H60    0.95010       .     S
H60   C56    0.95010       .     S
C57   H61    0.94947       .     S
H61   C57    0.94947       .     S
C62   C63    1.39601       .     S
C63   C62    1.39601       .     S
C62   C71    1.35208   1_455     S
C71   C62    1.35208   1_655     S
C63   C64    1.38808       .     S
C64   C63    1.38808       .     S
C63   H75    0.95019       .     S
H75   C63    0.95019       .     S
C64   C65    1.36446       .     S
C65   C64    1.36446       .     S
C64   H74    0.94912       .     S
H74   C64    0.94912       .     S
C65   S66    1.77374       .     S
S66   C65    1.77374       .     S
C65   C70    1.37417       .     S
C70   C65    1.37417       .     S
S66   O67    1.46315       .     S
O67   S66    1.46315       .     S
S66   O68    1.45214       .     S
O68   S66    1.45214       .     S
S66   O69    1.45613       .     S
O69   S66    1.45613       .     S
C70   C71    1.39127   1_455     S
C71   C70    1.39127   1_655     S
C70   H73    0.94947       .     S
H73   C70    0.94947       .     S
C71   H72    0.95010       .     S
H72   C71    0.95010       .     S
Br76  H77    0.88991       .     S
H77   Br76   0.88991       .     S
Br76  C78    1.88390       .     S
C78   Br76   1.88390       .     S
Br76  C89    0.98978       .     S
C89   Br76   0.98978       .     S
Br76  C90    1.35008       .     S
C90   Br76   1.35008       .     S
Br76  H93    1.48610       .     S
H93   Br76   1.48610       .     S
H77   C89    0.95037       .     S
C89   H77    0.95037       .     S
C78   C79    1.38965       .     S
C79   C78    1.38965       .     S
C78   C83    1.38963       .     S
C83   C78    1.38963       .     S
C78   C86    1.65689       .     S
C86   C78    1.65689       .     S
C78   C89    1.51580       .     S
C89   C78    1.51580       .     S
C78   C90    0.78912       .     S
C90   C78    0.78912       .     S
C78   C91    0.91987       .     S
C91   C78    0.91987       .     S
C79   C80    1.38871       .     S
C80   C79    1.38871       .     S
C79   H84    0.95084       .     S
H84   C79    0.95084       .     S
C79   C90    1.51265       .     S
C90   C79    1.51265       .     S
C79   C91    0.75982       .     S
C91   C79    0.75982       .     S
C79   Br99   1.34804       .     S
Br99  C79    1.34804       .     S
C80   C81    1.39021       .     S
C81   C80    1.39021       .     S
C80   C91    1.51226       .     S
C91   C80    1.51226       .     S
C80   H98    0.95005       .     S
H98   C80    0.95005       .     S
C80   Br99   1.04891       .     S
Br99  C80    1.04891       .     S
C81   C82    1.38968       .     S
C82   C81    1.38968       .     S
C81   C86    1.51732       .     S
C86   C81    1.51732       .     S
C81   H94    0.94961       .     S
H94   C81    0.94961       .     S
C81   Br95   0.91571       .     S
Br95  C81    0.91571       .     S
C82   C83    1.39039       .     S
C83   C82    1.39039       .     S
C82   H85    0.95053       .     S
H85   C82    0.95053       .     S
C82   C86    0.80138       .     S
C86   C82    0.80138       .     S
C82   C87    1.52172       .     S
C87   C82    1.52172       .     S
C82   Br95   1.33884       .     S
Br95  C82    1.33884       .     S
C83   C86    0.92946       .     S
C86   C83    0.92946       .     S
C83   C87    0.77788       .     S
C87   C83    0.77788       .     S
C83   C88    1.51985       .     S
C88   C83    1.51985       .     S
C83   C91    1.68139       .     S
C91   C83    1.68139       .     S
C83   Br96   1.87268       .     S
Br96  C83    1.87268       .     S
H84   Br99   1.44135       .     S
Br99  H84    1.44135       .     S
H85   Br95   1.52490       .     S
Br95  H85    1.52490       .     S
C86   C87    1.39016       .     S
C87   C86    1.39016       .     S
C86   C91    1.39026       .     S
C91   C86    1.39026       .     S
C86   Br95   1.84947       .     S
Br95  C86    1.84947       .     S
C87   C88    1.38953       .     S
C88   C87    1.38953       .     S
C87   H92    0.95069       .     S
H92   C87    0.95069       .     S
C87   Br96   1.36477       .     S
Br96  C87    1.36477       .     S
C88   C89    1.38993       .     S
C89   C88    1.38993       .     S
C88   Br96   1.01265       .     S
Br96  C88    1.01265       .     S
C88   H97    0.94899       .     S
H97   C88    0.94899       .     S
C89   C90    1.39069       .     S
C90   C89    1.39069       .     S
C90   C91    1.39019       .     S
C91   C90    1.39019       .     S
C90   H93    0.94929       .     S
H93   C90    0.94929       .     S
C91   Br99   1.89071       .     S
Br99  C91    1.89071       .     S
H92   Br96   1.49857       .     S
Br96  H92    1.49857       .     S
H94   Br95   0.84648       .     S
Br95  H94    0.84648       .     S
Br96  H97    0.91488       .     S
H97   Br96   0.91488       .     S
H98   Br99   0.93290       .     S
Br99  H98    0.93290       .     S
O49   H33    2.05216   1_655     S
H33   O49    2.05216   1_455     S
O50   H34    2.14794   1_655     S
H34   O50    2.14794   1_455     S
O51   H35    2.01870       .     S
H35   O51    2.01870       .     S
O3    H36    1.98792   1_545     S
H36   O3     1.98792   1_565     S
O49   H37    2.10072       .     S
H37   O49    2.10072       .     S
O50   H42    2.57005   1_655     S
H42   O50    2.57005   1_455     S
O1    H43    2.05675   1_655     S
H43   O1     2.05675   1_455     S
O1    H44    2.10441       .     S
H44   O1     2.10441       .     S
O51   H45    2.00370       .     S
H45   O51    2.00370       .     S
O3    H46    2.00928       .     S
H46   O3     2.00928       .     S
O2    H47    2.13716   1_655     S
H47   O2     2.13716   1_455     S
Br76  H84    2.89403       .     S
H84   Br76   2.89403       .     S
Br96  H85    2.89402       .     S
H85   Br96   2.89402       .     S
Br95  H92    2.90972       .     S
H92   Br95   2.90972       .     S
Br99  H93    2.87091       .     S
H93   Br99   2.87091       .     S
Br76  H97    2.92561       .     S
H97   Br76   2.92561       .     S
Br95  H98    2.85235       .     S
H98   Br95   2.85235       .     S
O1    S0     1.43053       .     S
S0    O1     1.43053       .     S
O2    S0     1.45261       .     S
S0    O2     1.45261       .     S
O3    S0     1.45576       .     S
S0    O3     1.45576       .     S
C4    S0     1.76192       .     S
S0    C4     1.76192       .     S
C5    C4     1.39832   1_565     S
C4    C5     1.39832   1_545     S
C9    C4     1.34801       .     S
C4    C9     1.34801       .     S
C6    C5     1.35981       .     S
C5    C6     1.35981       .     S
H10   C5     0.94972       .     S
C5    H10    0.94972       .     S
C7    C6     1.39615   1_545     S
C6    C7     1.39615   1_565     S
H11   C6     0.95009       .     S
C6    H11    0.95009       .     S
C8    C7     1.39289   1_455     S
C7    C8     1.39289   1_655     S
C14   C7     1.47875   1_465     S
C7    C14    1.47875   1_645     S
C9    C8     1.35837   1_655     S
C8    C9     1.35837   1_455     S
H12   C8     0.95019       .     S
C8    H12    0.95019       .     S
H13   C9     0.94997       .     S
C9    H13    0.94997       .     S
C15   C14    1.39615   1_545     S
C14   C15    1.39615   1_565     S
C23   C14    1.39289   1_655     S
C14   C23    1.39289   1_455     S
C16   C15    1.35981       .     S
C15   C16    1.35981       .     S
H27   C15    0.95009       .     S
C15   H27    0.95009       .     S
C17   C16    1.39832   1_565     S
C16   C17    1.39832   1_545     S
H26   C16    0.94972       .     S
C16   H26    0.94972       .     S
S18   C17    1.76192       .     S
C17   S18    1.76192       .     S
C22   C17    1.34801       .     S
C17   C22    1.34801       .     S
O19   S18    1.43053       .     S
S18   O19    1.43053       .     S
O20   S18    1.45261       .     S
S18   O20    1.45261       .     S
O21   S18    1.45576       .     S
S18   O21    1.45576       .     S
C23   C22    1.35837   1_655     S
C22   C23    1.35837   1_455     S
H25   C22    0.94997       .     S
C22   H25    0.94997       .     S
H24   C23    0.95019       .     S
C23   H24    0.95019       .     S
N29   C28    1.30477       .     S
C28   N29    1.30477       .     S
N30   C28    1.32400       .     S
C28   N30    1.32400       .     S
N31   C28    1.32190       .     S
C28   N31    1.32190       .     S
H32   N29    0.88032       .     S
N29   H32    0.88032       .     S
H33   N29    0.88031       .     S
N29   H33    0.88031       .     S
H34   N30    0.87990       .     S
N30   H34    0.87990       .     S
H35   N30    0.87974       .     S
N30   H35    0.87974       .     S
H36   N31    0.88092       .     S
N31   H36    0.88092       .     S
H37   N31    0.87948       .     S
N31   H37    0.87948       .     S
N39   C38    1.33459       .     S
C38   N39    1.33459       .     S
N40   C38    1.32005       .     S
C38   N40    1.32005       .     S
N41   C38    1.33156       .     S
C38   N41    1.33156       .     S
H42   N39    0.88016       .     S
N39   H42    0.88016       .     S
H43   N39    0.88006       .     S
N39   H43    0.88006       .     S
H44   N40    0.87978       .     S
N40   H44    0.87978       .     S
H45   N40    0.88010       .     S
N40   H45    0.88010       .     S
H46   N41    0.88004       .     S
N41   H46    0.88004       .     S
H47   N41    0.87997       .     S
N41   H47    0.87997       .     S
O49   S48    1.46315       .     S
S48   O49    1.46315       .     S
O50   S48    1.45214       .     S
S48   O50    1.45214       .     S
O51   S48    1.45613       .     S
S48   O51    1.45613       .     S
C52   S48    1.77374       .     S
S48   C52    1.77374       .     S
C53   C52    1.36446       .     S
C52   C53    1.36446       .     S
C57   C52    1.37417       .     S
C52   C57    1.37417       .     S
C54   C53    1.38808       .     S
C53   C54    1.38808       .     S
H58   C53    0.94912       .     S
C53   H58    0.94912       .     S
C55   C54    1.39600       .     S
C54   C55    1.39600       .     S
H59   C54    0.95019       .     S
C54   H59    0.95019       .     S
C56   C55    1.35208   1_455     S
C55   C56    1.35208   1_655     S
C62   C55    1.48244   1_455     S
C55   C62    1.48244   1_655     S
C57   C56    1.39127   1_655     S
C56   C57    1.39127   1_455     S
H60   C56    0.95010       .     S
C56   H60    0.95010       .     S
H61   C57    0.94947       .     S
C57   H61    0.94947       .     S
C63   C62    1.39601       .     S
C62   C63    1.39601       .     S
C71   C62    1.35208   1_655     S
C62   C71    1.35208   1_455     S
C64   C63    1.38808       .     S
C63   C64    1.38808       .     S
H75   C63    0.95019       .     S
C63   H75    0.95019       .     S
C65   C64    1.36446       .     S
C64   C65    1.36446       .     S
H74   C64    0.94912       .     S
C64   H74    0.94912       .     S
S66   C65    1.77374       .     S
C65   S66    1.77374       .     S
C70   C65    1.37417       .     S
C65   C70    1.37417       .     S
O67   S66    1.46315       .     S
S66   O67    1.46315       .     S
O68   S66    1.45214       .     S
S66   O68    1.45214       .     S
O69   S66    1.45613       .     S
S66   O69    1.45613       .     S
C71   C70    1.39127   1_655     S
C70   C71    1.39127   1_455     S
H73   C70    0.94947       .     S
C70   H73    0.94947       .     S
H72   C71    0.95010       .     S
C71   H72    0.95010       .     S
H77   Br76   0.88991       .     S
Br76  H77    0.88991       .     S
C78   Br76   1.88390       .     S
Br76  C78    1.88390       .     S
C89   Br76   0.98978       .     S
Br76  C89    0.98978       .     S
C90   Br76   1.35008       .     S
Br76  C90    1.35008       .     S
H93   Br76   1.48610       .     S
Br76  H93    1.48610       .     S
C89   H77    0.95037       .     S
H77   C89    0.95037       .     S
C79   C78    1.38965       .     S
C78   C79    1.38965       .     S
C83   C78    1.38963       .     S
C78   C83    1.38963       .     S
C86   C78    1.65689       .     S
C78   C86    1.65689       .     S
C89   C78    1.51580       .     S
C78   C89    1.51580       .     S
C90   C78    0.78912       .     S
C78   C90    0.78912       .     S
C91   C78    0.91987       .     S
C78   C91    0.91987       .     S
C80   C79    1.38871       .     S
C79   C80    1.38871       .     S
H84   C79    0.95084       .     S
C79   H84    0.95084       .     S
C90   C79    1.51265       .     S
C79   C90    1.51265       .     S
C91   C79    0.75982       .     S
C79   C91    0.75982       .     S
Br99  C79    1.34804       .     S
C79   Br99   1.34804       .     S
C81   C80    1.39021       .     S
C80   C81    1.39021       .     S
C91   C80    1.51226       .     S
C80   C91    1.51226       .     S
H98   C80    0.95005       .     S
C80   H98    0.95005       .     S
Br99  C80    1.04891       .     S
C80   Br99   1.04891       .     S
C82   C81    1.38968       .     S
C81   C82    1.38968       .     S
C86   C81    1.51732       .     S
C81   C86    1.51732       .     S
H94   C81    0.94961       .     S
C81   H94    0.94961       .     S
Br95  C81    0.91571       .     S
C81   Br95   0.91571       .     S
C83   C82    1.39039       .     S
C82   C83    1.39039       .     S
H85   C82    0.95053       .     S
C82   H85    0.95053       .     S
C86   C82    0.80138       .     S
C82   C86    0.80138       .     S
C87   C82    1.52172       .     S
C82   C87    1.52172       .     S
Br95  C82    1.33884       .     S
C82   Br95   1.33884       .     S
C86   C83    0.92946       .     S
C83   C86    0.92946       .     S
C87   C83    0.77788       .     S
C83   C87    0.77788       .     S
C88   C83    1.51985       .     S
C83   C88    1.51985       .     S
C91   C83    1.68139       .     S
C83   C91    1.68139       .     S
Br96  C83    1.87268       .     S
C83   Br96   1.87268       .     S
Br99  H84    1.44135       .     S
H84   Br99   1.44135       .     S
Br95  H85    1.52490       .     S
H85   Br95   1.52490       .     S
C87   C86    1.39016       .     S
C86   C87    1.39016       .     S
C91   C86    1.39026       .     S
C86   C91    1.39026       .     S
Br95  C86    1.84947       .     S
C86   Br95   1.84947       .     S
C88   C87    1.38953       .     S
C87   C88    1.38953       .     S
H92   C87    0.95069       .     S
C87   H92    0.95069       .     S
Br96  C87    1.36477       .     S
C87   Br96   1.36477       .     S
C89   C88    1.38993       .     S
C88   C89    1.38993       .     S
Br96  C88    1.01265       .     S
C88   Br96   1.01265       .     S
H97   C88    0.94899       .     S
C88   H97    0.94899       .     S
C90   C89    1.39069       .     S
C89   C90    1.39069       .     S
C91   C90    1.39019       .     S
C90   C91    1.39019       .     S
H93   C90    0.94929       .     S
C90   H93    0.94929       .     S
Br99  C91    1.89071       .     S
C91   Br99   1.89071       .     S
Br96  H92    1.49857       .     S
H92   Br96   1.49857       .     S
Br95  H94    0.84648       .     S
H94   Br95   0.84648       .     S
H97   Br96   0.91488       .     S
Br96  H97    0.91488       .     S
Br99  H98    0.93290       .     S
H98   Br99   0.93290       .     S
