data_I
_chemical_name_common  '/data/user2/wty/HOF/MOFDiff/mofdiff/data/test/1_13'
_cell_length_a  7.25090
_cell_length_b 12.32810
_cell_length_c 29.37610
_cell_angle_alpha 78.78100
_cell_angle_beta  84.87200
_cell_angle_gamma 86.37200
_space_group_name_H-M_alt      'P 1'


loop_
_space_group_symop_operation_xyz
  'x, y, z' 

loop_
_atom_site_label
_atom_site_fract_x
_atom_site_fract_y
_atom_site_fract_z
_atom_site_type_symbol
S0      0.2012   0.1369  0.06842     S
O1       0.348   0.2051  0.04292     O
O2      0.0165   0.1857  0.05931     O
O3       0.221    0.022  0.06192     O
C4      0.2233   0.1313   0.1287     C
C5      0.1851   0.2261  0.14753     C
H6      0.1504   0.2942  0.12819     H
C7      0.1979   0.2208  0.19437     C
H8      0.1721   0.2858  0.20712     H
C9      0.2482   0.1216   0.2236     C
C10     0.2888   0.0288  0.20354     C
H11     0.3264    0.961  0.22258     H
C12     0.2759   0.0326  0.15682     C
H13     0.3029   0.9679  0.14394     H
S14    0.29786  0.10962  0.42927     S
O15     0.1501    0.044    0.455     O
O16     0.4825   0.0625  0.43941     O
O17     0.2753   0.2258  0.43396     O
C18     0.2808   0.1099  0.36953     C
C19     0.3838    0.034  0.34731     C
H20     0.4627   0.9796  0.36445     H
C21     0.3724   0.0371  0.30014     C
H22     0.4445   0.9852   0.2852     H
C23     0.2566   0.1154  0.27458     C
C24     0.1508     0.19  0.29743     C
H25       0.07   0.2435  0.28049     H
C26     0.1619   0.1871   0.3445     C
H27     0.0881    0.238  0.35965     H
C28     0.2241   0.2133  0.54478     C
N29     0.2027   0.3212  0.54274     N
H30     0.3001   0.3608  0.54206     H
H31     0.0911   0.3536  0.54206     H
N32     0.0752   0.1544  0.54656     N
H33      0.964   0.1875  0.54638     H
H34     0.0879   0.0824  0.54793     H
N35     0.3921   0.1652  0.54579     N
H36     0.4891   0.2051  0.54511     H
H37      0.407   0.0933  0.54715     H
C38     0.7242   0.4607  0.04691     C
N39     0.7009   0.5648  0.05171     N
H40     0.7975   0.6028  0.05372     H
H41     0.5887   0.5963  0.05291     H
N42     0.5767   0.4035  0.04443     N
H43     0.4648   0.4352    0.046     H
H44     0.5913   0.3339  0.04123     H
N45     0.8931   0.4134  0.04511     N
H46     0.9896   0.4516  0.04713     H
H47     0.9088   0.3439  0.04191     H
S48    0.20317  0.63217  0.07338     S
O49     0.3505   0.6987  0.04741     O
O50     0.0183   0.6806   0.0643     O
O51      0.223   0.5167  0.06766     O
C52     0.2251   0.6294  0.13369     C
C53     0.1507   0.7175  0.15325     C
H54     0.0924   0.7796  0.13458     H
C55      0.162   0.7143  0.20024     C
H56       0.11   0.7745  0.21369     H
C57     0.2487    0.624  0.22845     C
C58      0.328   0.5383  0.20726     C
H59     0.3915   0.4775  0.22539     H
C60      0.316   0.5404  0.16041     C
H61     0.3697   0.4811  0.14659     H
S62    0.29667  0.60923  0.43403     S
O63     0.1522   0.5406  0.45965     O
O64     0.4827   0.5619  0.44254     O
O65      0.276    0.724  0.44086     O
C66     0.2743   0.6141  0.37433     C
C67     0.2705   0.5159  0.35777     C
H68     0.2741   0.4468  0.37878     H
C69     0.2616   0.5191  0.31076     C
H70     0.2597   0.4517  0.29971     H
C71     0.2552     0.62  0.27902     C
C72     0.2553   0.7171  0.29677     C
H73     0.2485   0.7866  0.27607     H
C74     0.2651   0.7148   0.3436     C
H75     0.2656    0.782  0.35482     H
C76      0.677    0.281  0.24182     C
H77     0.6205   0.2121  0.25227     H
C78     0.7131   0.3429  0.27452     C
C79     0.7971   0.4441   0.2583     C
H80     0.8244   0.4883   0.2798     H
C81     0.8401   0.4795   0.2113     C
H82      0.898   0.5479   0.2007     H
C83      0.801   0.4183   0.1797     C
H84     0.8286   0.4452   0.1474     H
C85     0.7201   0.3158  0.19464     C
C86     0.6798   0.2468   0.1597     C
H87     0.6076   0.2923   0.1357     H
H88      0.609   0.1833   0.1754     H
H89     0.7967   0.2205   0.1452     H
C90     0.6665   0.3026  0.32568     C
H91     0.6935   0.2226  0.33342     H
H92     0.5348   0.3189  0.33335     H
H93     0.7411   0.3401  0.34357     H
C94     0.7051   0.7605   0.2499     C
H95     0.6586   0.6886   0.2539     H
C96     0.7098   0.8265   0.2054     C
C97     0.7736   0.9284   0.1987     C
H98     0.7796   0.9739   0.1686     H
C99     0.8327   0.9678   0.2374     C
H100    0.8726   0.0413   0.2331     H
C101    0.8328   0.9012    0.281     C
H102    0.8789   0.9273   0.3059     H
C103    0.7635   0.7931   0.2883     C
C104    0.7582   0.7172   0.3344     C
H105    0.6817   0.6549   0.3339     H
H106    0.7053   0.7574   0.3585     H
H107    0.8843   0.6893   0.3412     H
C108    0.6477   0.7804   0.1645     C
H109    0.7513   0.7782   0.1409     H
H110    0.5454   0.8275   0.1506     H
H111     0.606   0.7054   0.1762     H
C112    0.7753   0.2887  0.44961     C
N113    0.7985   0.1814   0.4494     N
H114    0.7018   0.1419  0.44921     H
H115    0.9106   0.1496  0.44946     H
N116    0.6071   0.3359  0.44952     N
H117    0.5107   0.2962  0.44933     H
H118    0.5911   0.4072  0.44966     H
N119    0.9232   0.3474  0.44946     N
H120    0.9096   0.4189  0.44931     H
H121    0.0346   0.3147  0.44952     H
C122    0.7218   0.9585  0.04847     C
N123     0.574    0.902  0.04686     N
H124    0.5867   0.8311   0.0458     H
H125    0.4631   0.9354  0.04686     H
N126    0.8903   0.9111  0.04853     N
H127    0.9861   0.9497  0.05055     H
H128    0.9066   0.8407  0.04654     H
N129    0.6992   0.0642  0.05147     N
H130     0.796   0.1022  0.05348     H
H131    0.5875   0.0966  0.05146     H
loop_
_geom_bond_atom_site_label_1
_geom_bond_atom_site_label_2
_geom_bond_distance
_geom_bond_site_symmetry_2
_ccdc_geom_bond_type
H40   O50    1.99474   1_655     S
O50   H40    1.99474   1_455     S
H41   O49    2.07302       .     S
O49   H41    2.07302       .     S
H43   O51    2.07719       .     S
O51   H43    2.07719       .     S
H44   O1     2.43806       .     S
O1    H44    2.43806       .     S
H46   O51    2.10109   1_655     S
O51   H46    2.10109   1_455     S
H47   O2     2.04095   1_655     S
O2    H47    2.04095   1_455     S
H114  O16    1.98947       .     S
O16   H114   1.98947       .     S
H115  O15    2.10214   1_655     S
O15   H115   2.10214   1_455     S
H117  O17    2.08524       .     S
O17   H117   2.08524       .     S
H118  O64    1.99581       .     S
O64   H118   1.99581       .     S
H120  O63    2.45854   1_655     S
O63   H120   2.45854   1_455     S
H121  O17    2.06552       .     S
O17   H121   2.06552       .     S
H124  O49    2.43083       .     S
O49   H124   2.43083       .     S
H125  O3     2.05545   1_565     S
O3    H125   2.05545   1_545     S
H127  O3     2.05346   1_665     S
O3    H127   2.05346   1_445     S
H128  O50    2.07276   1_655     S
O50   H128   2.07276   1_455     S
H130  O2     1.99275   1_655     S
O2    H130   1.99275   1_455     S
H131  O1     2.12631       .     S
O1    H131   2.12631       .     S
S0    O1     1.45832       .     S
O1    S0     1.45832       .     S
S0    O2     1.45828       .     S
O2    S0     1.45828       .     S
S0    O3     1.46224       .     S
O3    S0     1.46224       .     S
S0    C4     1.77986       .     S
C4    S0     1.77986       .     S
C4    C5     1.38988       .     S
C5    C4     1.38988       .     S
C4    C12    1.38379       .     S
C12   C4     1.38379       .     S
C5    H6     0.95086       .     S
H6    C5     0.95086       .     S
C5    C7     1.37596       .     S
C7    C5     1.37596       .     S
C7    H8     0.95010       .     S
H8    C7     0.95010       .     S
C7    C9     1.39887       .     S
C9    C7     1.39887       .     S
C9    C10    1.38977       .     S
C10   C9     1.38977       .     S
C9    C23    1.49114       .     S
C23   C9     1.49114       .     S
C10   H11    0.94990   1_545     S
H11   C10    0.94990   1_565     S
C10   C12    1.37548       .     S
C12   C10    1.37548       .     S
C12   H13    0.94980   1_545     S
H13   C12    0.94980   1_565     S
S14   O15    1.44935       .     S
O15   S14    1.44935       .     S
S14   O16    1.45743       .     S
O16   S14    1.45743       .     S
S14   O17    1.46297       .     S
O17   S14    1.46297       .     S
S14   C18    1.76960       .     S
C18   S14    1.76960       .     S
C18   C19    1.38617       .     S
C19   C18    1.38617       .     S
C18   C26    1.38812       .     S
C26   C18    1.38812       .     S
C19   H20    0.94980   1_545     S
H20   C19    0.94980   1_565     S
C19   C21    1.38847       .     S
C21   C19    1.38847       .     S
C21   H22    0.94933   1_545     S
H22   C21    0.94933   1_565     S
C21   C23    1.38877       .     S
C23   C21    1.38877       .     S
C23   C24    1.39419       .     S
C24   C23    1.39419       .     S
C24   H25    0.94942       .     S
H25   C24    0.94942       .     S
C24   C26    1.38564       .     S
C26   C24    1.38564       .     S
C26   H27    0.94962       .     S
H27   C26    0.94962       .     S
C28   N29    1.31971       .     S
N29   C28    1.31971       .     S
C28   N32    1.33042       .     S
N32   C28    1.33042       .     S
C28   N35    1.32083       .     S
N35   C28    1.32083       .     S
N29   H30    0.88024       .     S
H30   N29    0.88024       .     S
N29   H31    0.87956       .     S
H31   N29    0.87956       .     S
N32   H33    0.88031   1_455     S
H33   N32    0.88031   1_655     S
N32   H34    0.88000       .     S
H34   N32    0.88000       .     S
N35   H36    0.88005       .     S
H36   N35    0.88005       .     S
N35   H37    0.87968       .     S
H37   N35    0.87968       .     S
C38   N39    1.31687       .     S
N39   C38    1.31687       .     S
C38   N42    1.33258       .     S
N42   C38    1.33258       .     S
C38   N45    1.32390       .     S
N45   C38    1.32390       .     S
N39   H40    0.87934       .     S
H40   N39    0.87934       .     S
N39   H41    0.87985       .     S
H41   N39    0.87985       .     S
N42   H43    0.87942       .     S
H43   N42    0.87942       .     S
N42   H44    0.87999       .     S
H44   N42    0.87999       .     S
N45   H46    0.88028       .     S
H46   N45    0.88028       .     S
N45   H47    0.87920       .     S
H47   N45    0.87920       .     S
S48   O49    1.45522       .     S
O49   S48    1.45522       .     S
S48   O50    1.45779       .     S
O50   S48    1.45779       .     S
S48   O51    1.46225       .     S
O51   S48    1.46225       .     S
S48   C52    1.78645       .     S
C52   S48    1.78645       .     S
C52   C53    1.38350       .     S
C53   C52    1.38350       .     S
C52   C60    1.38572       .     S
C60   C52    1.38572       .     S
C53   H54    0.95011       .     S
H54   C53    0.95011       .     S
C53   C55    1.38288       .     S
C55   C53    1.38288       .     S
C55   H56    0.94927       .     S
H56   C55    0.94927       .     S
C55   C57    1.40243       .     S
C57   C55    1.40243       .     S
C57   C58    1.39620       .     S
C58   C57    1.39620       .     S
C57   C71    1.48163       .     S
C71   C57    1.48163       .     S
C58   H59    0.94989       .     S
H59   C58    0.94989       .     S
C58   C60    1.38189       .     S
C60   C58    1.38189       .     S
C60   H61    0.94978       .     S
H61   C60    0.94978       .     S
S62   O63    1.45019       .     S
O63   S62    1.45019       .     S
S62   O64    1.45820       .     S
O64   S62    1.45820       .     S
S62   O65    1.46386       .     S
O65   S62    1.46386       .     S
S62   C66    1.76471       .     S
C66   S62    1.76471       .     S
C66   C67    1.39240       .     S
C67   C66    1.39240       .     S
C66   C74    1.38735       .     S
C74   C66    1.38735       .     S
C67   H68    0.95014       .     S
H68   C67    0.95014       .     S
C67   C69    1.38102       .     S
C69   C67    1.38102       .     S
C69   H70    0.95036       .     S
H70   C69    0.95036       .     S
C69   C71    1.40283       .     S
C71   C69    1.40283       .     S
C71   C72    1.39567       .     S
C72   C71    1.39567       .     S
C72   H73    0.95057       .     S
H73   C72    0.95057       .     S
C72   C74    1.37855       .     S
C74   C72    1.37855       .     S
C74   H75    0.94964       .     S
H75   C74    0.94964       .     S
C76   H77    0.95061       .     S
H77   C76    0.95061       .     S
C76   C78    1.38891       .     S
C78   C76    1.38891       .     S
C76   C85    1.38231       .     S
C85   C76    1.38231       .     S
C78   C79    1.40267       .     S
C79   C78    1.40267       .     S
C78   C90    1.50319       .     S
C90   C78    1.50319       .     S
C79   H80    0.95127       .     S
H80   C79    0.95127       .     S
C79   C81    1.37831       .     S
C81   C79    1.37831       .     S
C81   H82    0.95054       .     S
H82   C81    0.95054       .     S
C81   C83    1.36308       .     S
C83   C81    1.36308       .     S
C83   H84    0.94992       .     S
H84   C83    0.94992       .     S
C83   C85    1.40195       .     S
C85   C83    1.40195       .     S
C85   C86    1.51238       .     S
C86   C85    1.51238       .     S
C86   H87    0.98015       .     S
H87   C86    0.98015       .     S
C86   H88    0.97833       .     S
H88   C86    0.97833       .     S
C86   H89    0.97952       .     S
H89   C86    0.97952       .     S
C90   H91    0.97927       .     S
H91   C90    0.97927       .     S
C90   H92    0.97874       .     S
H92   C90    0.97874       .     S
C90   H93    0.97955       .     S
H93   C90    0.97955       .     S
C94   H95    0.95047       .     S
H95   C94    0.95047       .     S
C94   C96    1.39776       .     S
C96   C94    1.39776       .     S
C94   C103   1.37719       .     S
C103  C94    1.37719       .     S
C96   C97    1.33863       .     S
C97   C96    1.33863       .     S
C96   C108   1.53757       .     S
C108  C96    1.53757       .     S
C97   H98    0.94952       .     S
H98   C97    0.94952       .     S
C97   C99    1.42839       .     S
C99   C97    1.42839       .     S
C99   H100   0.95016   1_565     S
H100  C99    0.95016   1_545     S
C99   C101   1.38038       .     S
C101  C99    1.38038       .     S
C101  H102   0.94827       .     S
H102  C101   0.94827       .     S
C101  C103   1.42435       .     S
C103  C101   1.42435       .     S
C103  C104   1.48766       .     S
C104  C103   1.48766       .     S
C104  H105   0.97854       .     S
H105  C104   0.97854       .     S
C104  H106   0.97871       .     S
H106  C104   0.97871       .     S
C104  H107   0.97997       .     S
H107  C104   0.97997       .     S
C108  H109   0.97842       .     S
H109  C108   0.97842       .     S
C108  H110   0.98055       .     S
H110  C108   0.98055       .     S
C108  H111   0.97857       .     S
H111  C108   0.97857       .     S
C112  N113   1.32400       .     S
N113  C112   1.32400       .     S
C112  N116   1.31765       .     S
N116  C112   1.31765       .     S
C112  N119   1.33037       .     S
N119  C112   1.33037       .     S
N113  H114   0.87964       .     S
H114  N113   0.87964       .     S
N113  H115   0.87979       .     S
H115  N113   0.87979       .     S
N116  H117   0.87932       .     S
H117  N116   0.87932       .     S
N116  H118   0.88007       .     S
H118  N116   0.88007       .     S
N119  H120   0.87993       .     S
H120  N119   0.87993       .     S
N119  H121   0.87963   1_655     S
H121  N119   0.87963   1_455     S
C122  N123   1.32373       .     S
N123  C122   1.32373       .     S
C122  N126   1.32054       .     S
N126  C122   1.32054       .     S
C122  N129   1.32201   1_565     S
N129  C122   1.32201   1_545     S
N123  H124   0.87939       .     S
H124  N123   0.87939       .     S
N123  H125   0.87992       .     S
H125  N123   0.87992       .     S
N126  H127   0.87902       .     S
H127  N126   0.87902       .     S
N126  H128   0.88100       .     S
H128  N126   0.88100       .     S
N129  H130   0.88056       .     S
H130  N129   0.88056       .     S
N129  H131   0.88010       .     S
H131  N129   0.88010       .     S
O50   H40    1.99474   1_455     S
H40   O50    1.99474   1_655     S
O49   H41    2.07302       .     S
H41   O49    2.07302       .     S
O51   H43    2.07719       .     S
H43   O51    2.07719       .     S
O1    H44    2.43806       .     S
H44   O1     2.43806       .     S
O51   H46    2.10109   1_455     S
H46   O51    2.10109   1_655     S
O2    H47    2.04095   1_455     S
H47   O2     2.04095   1_655     S
O16   H114   1.98947       .     S
H114  O16    1.98947       .     S
O15   H115   2.10214   1_455     S
H115  O15    2.10214   1_655     S
O17   H117   2.08524       .     S
H117  O17    2.08524       .     S
O64   H118   1.99581       .     S
H118  O64    1.99581       .     S
O63   H120   2.45854   1_455     S
H120  O63    2.45854   1_655     S
O17   H121   2.06552       .     S
H121  O17    2.06552       .     S
O49   H124   2.43083       .     S
H124  O49    2.43083       .     S
O3    H125   2.05545   1_545     S
H125  O3     2.05545   1_565     S
O3    H127   2.05346   1_445     S
H127  O3     2.05346   1_665     S
O50   H128   2.07276   1_455     S
H128  O50    2.07276   1_655     S
O2    H130   1.99275   1_455     S
H130  O2     1.99275   1_655     S
O1    H131   2.12631       .     S
H131  O1     2.12631       .     S
O1    S0     1.45832       .     S
S0    O1     1.45832       .     S
O2    S0     1.45828       .     S
S0    O2     1.45828       .     S
O3    S0     1.46224       .     S
S0    O3     1.46224       .     S
C4    S0     1.77986       .     S
S0    C4     1.77986       .     S
C5    C4     1.38988       .     S
C4    C5     1.38988       .     S
C12   C4     1.38379       .     S
C4    C12    1.38379       .     S
H6    C5     0.95086       .     S
C5    H6     0.95086       .     S
C7    C5     1.37596       .     S
C5    C7     1.37596       .     S
H8    C7     0.95010       .     S
C7    H8     0.95010       .     S
C9    C7     1.39887       .     S
C7    C9     1.39887       .     S
C10   C9     1.38977       .     S
C9    C10    1.38977       .     S
C23   C9     1.49114       .     S
C9    C23    1.49114       .     S
H11   C10    0.94990   1_565     S
C10   H11    0.94990   1_545     S
C12   C10    1.37548       .     S
C10   C12    1.37548       .     S
H13   C12    0.94980   1_565     S
C12   H13    0.94980   1_545     S
O15   S14    1.44935       .     S
S14   O15    1.44935       .     S
O16   S14    1.45743       .     S
S14   O16    1.45743       .     S
O17   S14    1.46297       .     S
S14   O17    1.46297       .     S
C18   S14    1.76960       .     S
S14   C18    1.76960       .     S
C19   C18    1.38617       .     S
C18   C19    1.38617       .     S
C26   C18    1.38812       .     S
C18   C26    1.38812       .     S
H20   C19    0.94980   1_565     S
C19   H20    0.94980   1_545     S
C21   C19    1.38847       .     S
C19   C21    1.38847       .     S
H22   C21    0.94933   1_565     S
C21   H22    0.94933   1_545     S
C23   C21    1.38877       .     S
C21   C23    1.38877       .     S
C24   C23    1.39419       .     S
C23   C24    1.39419       .     S
H25   C24    0.94942       .     S
C24   H25    0.94942       .     S
C26   C24    1.38564       .     S
C24   C26    1.38564       .     S
H27   C26    0.94962       .     S
C26   H27    0.94962       .     S
N29   C28    1.31971       .     S
C28   N29    1.31971       .     S
N32   C28    1.33042       .     S
C28   N32    1.33042       .     S
N35   C28    1.32083       .     S
C28   N35    1.32083       .     S
H30   N29    0.88024       .     S
N29   H30    0.88024       .     S
H31   N29    0.87956       .     S
N29   H31    0.87956       .     S
H33   N32    0.88031   1_655     S
N32   H33    0.88031   1_455     S
H34   N32    0.88000       .     S
N32   H34    0.88000       .     S
H36   N35    0.88005       .     S
N35   H36    0.88005       .     S
H37   N35    0.87968       .     S
N35   H37    0.87968       .     S
N39   C38    1.31687       .     S
C38   N39    1.31687       .     S
N42   C38    1.33258       .     S
C38   N42    1.33258       .     S
N45   C38    1.32390       .     S
C38   N45    1.32390       .     S
H40   N39    0.87934       .     S
N39   H40    0.87934       .     S
H41   N39    0.87985       .     S
N39   H41    0.87985       .     S
H43   N42    0.87942       .     S
N42   H43    0.87942       .     S
H44   N42    0.87999       .     S
N42   H44    0.87999       .     S
H46   N45    0.88028       .     S
N45   H46    0.88028       .     S
H47   N45    0.87920       .     S
N45   H47    0.87920       .     S
O49   S48    1.45522       .     S
S48   O49    1.45522       .     S
O50   S48    1.45779       .     S
S48   O50    1.45779       .     S
O51   S48    1.46225       .     S
S48   O51    1.46225       .     S
C52   S48    1.78645       .     S
S48   C52    1.78645       .     S
C53   C52    1.38350       .     S
C52   C53    1.38350       .     S
C60   C52    1.38572       .     S
C52   C60    1.38572       .     S
H54   C53    0.95011       .     S
C53   H54    0.95011       .     S
C55   C53    1.38288       .     S
C53   C55    1.38288       .     S
H56   C55    0.94927       .     S
C55   H56    0.94927       .     S
C57   C55    1.40243       .     S
C55   C57    1.40243       .     S
C58   C57    1.39620       .     S
C57   C58    1.39620       .     S
C71   C57    1.48163       .     S
C57   C71    1.48163       .     S
H59   C58    0.94989       .     S
C58   H59    0.94989       .     S
C60   C58    1.38189       .     S
C58   C60    1.38189       .     S
H61   C60    0.94978       .     S
C60   H61    0.94978       .     S
O63   S62    1.45019       .     S
S62   O63    1.45019       .     S
O64   S62    1.45820       .     S
S62   O64    1.45820       .     S
O65   S62    1.46386       .     S
S62   O65    1.46386       .     S
C66   S62    1.76471       .     S
S62   C66    1.76471       .     S
C67   C66    1.39240       .     S
C66   C67    1.39240       .     S
C74   C66    1.38735       .     S
C66   C74    1.38735       .     S
H68   C67    0.95014       .     S
C67   H68    0.95014       .     S
C69   C67    1.38102       .     S
C67   C69    1.38102       .     S
H70   C69    0.95036       .     S
C69   H70    0.95036       .     S
C71   C69    1.40283       .     S
C69   C71    1.40283       .     S
C72   C71    1.39567       .     S
C71   C72    1.39567       .     S
H73   C72    0.95057       .     S
C72   H73    0.95057       .     S
C74   C72    1.37855       .     S
C72   C74    1.37855       .     S
H75   C74    0.94964       .     S
C74   H75    0.94964       .     S
H77   C76    0.95061       .     S
C76   H77    0.95061       .     S
C78   C76    1.38891       .     S
C76   C78    1.38891       .     S
C85   C76    1.38231       .     S
C76   C85    1.38231       .     S
C79   C78    1.40267       .     S
C78   C79    1.40267       .     S
C90   C78    1.50319       .     S
C78   C90    1.50319       .     S
H80   C79    0.95127       .     S
C79   H80    0.95127       .     S
C81   C79    1.37831       .     S
C79   C81    1.37831       .     S
H82   C81    0.95054       .     S
C81   H82    0.95054       .     S
C83   C81    1.36308       .     S
C81   C83    1.36308       .     S
H84   C83    0.94992       .     S
C83   H84    0.94992       .     S
C85   C83    1.40195       .     S
C83   C85    1.40195       .     S
C86   C85    1.51238       .     S
C85   C86    1.51238       .     S
H87   C86    0.98015       .     S
C86   H87    0.98015       .     S
H88   C86    0.97833       .     S
C86   H88    0.97833       .     S
H89   C86    0.97952       .     S
C86   H89    0.97952       .     S
H91   C90    0.97927       .     S
C90   H91    0.97927       .     S
H92   C90    0.97874       .     S
C90   H92    0.97874       .     S
H93   C90    0.97955       .     S
C90   H93    0.97955       .     S
H95   C94    0.95047       .     S
C94   H95    0.95047       .     S
C96   C94    1.39776       .     S
C94   C96    1.39776       .     S
C103  C94    1.37719       .     S
C94   C103   1.37719       .     S
C97   C96    1.33863       .     S
C96   C97    1.33863       .     S
C108  C96    1.53757       .     S
C96   C108   1.53757       .     S
H98   C97    0.94952       .     S
C97   H98    0.94952       .     S
C99   C97    1.42839       .     S
C97   C99    1.42839       .     S
H100  C99    0.95016   1_545     S
C99   H100   0.95016   1_565     S
C101  C99    1.38038       .     S
C99   C101   1.38038       .     S
H102  C101   0.94827       .     S
C101  H102   0.94827       .     S
C103  C101   1.42435       .     S
C101  C103   1.42435       .     S
C104  C103   1.48766       .     S
C103  C104   1.48766       .     S
H105  C104   0.97854       .     S
C104  H105   0.97854       .     S
H106  C104   0.97871       .     S
C104  H106   0.97871       .     S
H107  C104   0.97997       .     S
C104  H107   0.97997       .     S
H109  C108   0.97842       .     S
C108  H109   0.97842       .     S
H110  C108   0.98055       .     S
C108  H110   0.98055       .     S
H111  C108   0.97857       .     S
C108  H111   0.97857       .     S
N113  C112   1.32400       .     S
C112  N113   1.32400       .     S
N116  C112   1.31765       .     S
C112  N116   1.31765       .     S
N119  C112   1.33037       .     S
C112  N119   1.33037       .     S
H114  N113   0.87964       .     S
N113  H114   0.87964       .     S
H115  N113   0.87979       .     S
N113  H115   0.87979       .     S
H117  N116   0.87932       .     S
N116  H117   0.87932       .     S
H118  N116   0.88007       .     S
N116  H118   0.88007       .     S
H120  N119   0.87993       .     S
N119  H120   0.87993       .     S
H121  N119   0.87963   1_455     S
N119  H121   0.87963   1_655     S
N123  C122   1.32373       .     S
C122  N123   1.32373       .     S
N126  C122   1.32054       .     S
C122  N126   1.32054       .     S
N129  C122   1.32201   1_545     S
C122  N129   1.32201   1_565     S
H124  N123   0.87939       .     S
N123  H124   0.87939       .     S
H125  N123   0.87992       .     S
N123  H125   0.87992       .     S
H127  N126   0.87902       .     S
N126  H127   0.87902       .     S
H128  N126   0.88100       .     S
N126  H128   0.88100       .     S
H130  N129   0.88056       .     S
N129  H130   0.88056       .     S
H131  N129   0.88010       .     S
N129  H131   0.88010       .     S
