data_I
_chemical_name_common  '/data/user2/wty/HOF/MOFDiff/mofdiff/data/test/1_14'
_cell_length_a  6.18820
_cell_length_b  7.19940
_cell_length_c 14.29510
_cell_angle_alpha 98.09700
_cell_angle_beta  91.66200
_cell_angle_gamma 93.23500
_space_group_name_H-M_alt      'P 1'


loop_
_space_group_symop_operation_xyz
  'x, y, z' 

loop_
_atom_site_label
_atom_site_fract_x
_atom_site_fract_y
_atom_site_fract_z
_atom_site_type_symbol
C0      0.9601   0.7364   0.4047     C
N1      0.1736    0.756   0.4027     N
N2      0.8653    0.568   0.4061     N
N3      0.8452   0.8869   0.4049     N
H4      0.2513   0.6573   0.4024     H
H5       0.238   0.8679   0.4017     H
H6      0.9441   0.4699   0.4058     H
H7      0.7233   0.5538   0.4075     H
H8       0.703   0.8755    0.406     H
H9      0.9114   0.9981   0.4039     H
S10     0.3353   0.2356   0.3591     S
O11     0.4219   0.4297   0.3761     O
O12     0.1003   0.2193   0.3653     O
O13     0.4435   0.1154   0.4167     O
C14      0.391   0.1523     0.24     C
C15     0.2339   0.0516   0.1803     C
C16     0.2777   0.9915   0.0873     C
C17     0.4773   0.0305   0.0506     C
C18     0.6355    0.128   0.1128     C
C19     0.5926   0.1881   0.2062     C
H20      0.095   0.0236   0.2032     H
H21     0.1679   0.9213   0.0472     H
H22     0.7757   0.1538   0.0907     H
H23     0.7031   0.2547   0.2472     H
C24     0.5227   0.9695   0.9494     C
C25     0.7223   0.0085   0.9127     C
C26     0.7661   0.9484   0.8197     C
C27      0.609   0.8477     0.76     C
S28     0.6647   0.7644   0.6409     S
O29     0.5781   0.5703   0.6239     O
O30     0.8997   0.7807   0.6347     O
O31     0.5565   0.8846   0.5833     O
C32     0.4074   0.8119   0.7938     C
C33     0.3645    0.872   0.8872     C
H34     0.2243   0.8462   0.9093     H
H35     0.2969   0.7453   0.7528     H
H36      0.905   0.9764   0.7968     H
H37     0.8321   0.0787   0.9528     H
loop_
_geom_bond_atom_site_label_1
_geom_bond_atom_site_label_2
_geom_bond_distance
_geom_bond_site_symmetry_2
_ccdc_geom_bond_type
H4    O11    1.99638       .     S
O11   H4     1.99638       .     S
H5    O13    2.11162   1_565     S
O13   H5     2.11162   1_545     S
H6    O12    2.11177   1_655     S
O12   H6     2.11177   1_455     S
H7    O11    2.03195       .     S
O11   H7     2.03195       .     S
H8    O13    2.41619   1_565     S
O13   H8     2.41619   1_545     S
H9    O12    2.06926   1_665     S
O12   H9     2.06926   1_445     S
C0    N1     1.32232   1_655     S
N1    C0     1.32232   1_455     S
C0    N2     1.31972       .     S
N2    C0     1.31972       .     S
C0    N3     1.32882       .     S
N3    C0     1.32882       .     S
N1    H4     0.87975       .     S
H4    N1     0.87975       .     S
N1    H5     0.88055       .     S
H5    N1     0.88055       .     S
N2    H6     0.88020       .     S
H6    N2     0.88020       .     S
N2    H7     0.88004       .     S
H7    N2     0.88004       .     S
N3    H8     0.87996       .     S
H8    N3     0.87996       .     S
N3    H9     0.88062       .     S
H9    N3     0.88062       .     S
S10   O11    1.45301       .     S
O11   S10    1.45301       .     S
S10   O12    1.45861       .     S
O12   S10    1.45861       .     S
S10   O13    1.45234       .     S
O13   S10    1.45234       .     S
S10   C14    1.77394       .     S
C14   S10    1.77394       .     S
C14   C15    1.37734       .     S
C15   C14    1.37734       .     S
C14   C19    1.37477       .     S
C19   C14    1.37477       .     S
C15   C16    1.37848   1_545     S
C16   C15    1.37848   1_565     S
C15   H20    0.94972       .     S
H20   C15    0.94972       .     S
C16   C17    1.38551   1_565     S
C17   C16    1.38551   1_545     S
C16   H21    0.95012       .     S
H21   C16    0.95012       .     S
C17   C18    1.39206       .     S
C18   C17    1.39206       .     S
C17   C24    1.49103   1_544     S
C24   C17    1.49103   1_566     S
C18   C19    1.38244       .     S
C19   C18    1.38244       .     S
C18   H22    0.94934       .     S
H22   C18    0.94934       .     S
C19   H23    0.94951       .     S
H23   C19    0.94951       .     S
C24   C25    1.38551   1_565     S
C25   C24    1.38551   1_545     S
C24   C33    1.39206       .     S
C33   C24    1.39206       .     S
C25   C26    1.37848   1_545     S
C26   C25    1.37848   1_565     S
C25   H37    0.95012       .     S
H37   C25    0.95012       .     S
C26   C27    1.37734       .     S
C27   C26    1.37734       .     S
C26   H36    0.94972       .     S
H36   C26    0.94972       .     S
C27   S28    1.77394       .     S
S28   C27    1.77394       .     S
C27   C32    1.37477       .     S
C32   C27    1.37477       .     S
S28   O29    1.45301       .     S
O29   S28    1.45301       .     S
S28   O30    1.45861       .     S
O30   S28    1.45861       .     S
S28   O31    1.45234       .     S
O31   S28    1.45234       .     S
C32   C33    1.38244       .     S
C33   C32    1.38244       .     S
C32   H35    0.94951       .     S
H35   C32    0.94951       .     S
C33   H34    0.94934       .     S
H34   C33    0.94934       .     S
O11   H4     1.99638       .     S
H4    O11    1.99638       .     S
O13   H5     2.11162   1_545     S
H5    O13    2.11162   1_565     S
O12   H6     2.11177   1_455     S
H6    O12    2.11177   1_655     S
O11   H7     2.03195       .     S
H7    O11    2.03195       .     S
O13   H8     2.41619   1_545     S
H8    O13    2.41619   1_565     S
O12   H9     2.06926   1_445     S
H9    O12    2.06926   1_665     S
N1    C0     1.32232   1_455     S
C0    N1     1.32232   1_655     S
N2    C0     1.31972       .     S
C0    N2     1.31972       .     S
N3    C0     1.32882       .     S
C0    N3     1.32882       .     S
H4    N1     0.87975       .     S
N1    H4     0.87975       .     S
H5    N1     0.88055       .     S
N1    H5     0.88055       .     S
H6    N2     0.88020       .     S
N2    H6     0.88020       .     S
H7    N2     0.88004       .     S
N2    H7     0.88004       .     S
H8    N3     0.87996       .     S
N3    H8     0.87996       .     S
H9    N3     0.88062       .     S
N3    H9     0.88062       .     S
O11   S10    1.45301       .     S
S10   O11    1.45301       .     S
O12   S10    1.45861       .     S
S10   O12    1.45861       .     S
O13   S10    1.45234       .     S
S10   O13    1.45234       .     S
C14   S10    1.77394       .     S
S10   C14    1.77394       .     S
C15   C14    1.37734       .     S
C14   C15    1.37734       .     S
C19   C14    1.37477       .     S
C14   C19    1.37477       .     S
C16   C15    1.37848   1_565     S
C15   C16    1.37848   1_545     S
H20   C15    0.94972       .     S
C15   H20    0.94972       .     S
C17   C16    1.38551   1_545     S
C16   C17    1.38551   1_565     S
H21   C16    0.95012       .     S
C16   H21    0.95012       .     S
C18   C17    1.39206       .     S
C17   C18    1.39206       .     S
C24   C17    1.49103   1_566     S
C17   C24    1.49103   1_544     S
C19   C18    1.38244       .     S
C18   C19    1.38244       .     S
H22   C18    0.94934       .     S
C18   H22    0.94934       .     S
H23   C19    0.94951       .     S
C19   H23    0.94951       .     S
C25   C24    1.38551   1_545     S
C24   C25    1.38551   1_565     S
C33   C24    1.39206       .     S
C24   C33    1.39206       .     S
C26   C25    1.37848   1_565     S
C25   C26    1.37848   1_545     S
H37   C25    0.95012       .     S
C25   H37    0.95012       .     S
C27   C26    1.37734       .     S
C26   C27    1.37734       .     S
H36   C26    0.94972       .     S
C26   H36    0.94972       .     S
S28   C27    1.77394       .     S
C27   S28    1.77394       .     S
C32   C27    1.37477       .     S
C27   C32    1.37477       .     S
O29   S28    1.45301       .     S
S28   O29    1.45301       .     S
O30   S28    1.45861       .     S
S28   O30    1.45861       .     S
O31   S28    1.45234       .     S
S28   O31    1.45234       .     S
C33   C32    1.38244       .     S
C32   C33    1.38244       .     S
H35   C32    0.94951       .     S
C32   H35    0.94951       .     S
H34   C33    0.94934       .     S
C33   H34    0.94934       .     S
