data_I
_chemical_name_common  '/data/user2/wty/HOF/MOFDiff/mofdiff/data/test/1_15'
_cell_length_a 12.62950
_cell_length_b 14.34580
_cell_length_c 16.03310
_cell_angle_alpha 104.10800
_cell_angle_beta  110.91600
_cell_angle_gamma 92.76400
_space_group_name_H-M_alt      'P 1'


loop_
_space_group_symop_operation_xyz
  'x, y, z' 

loop_
_atom_site_label
_atom_site_fract_x
_atom_site_fract_y
_atom_site_fract_z
_atom_site_type_symbol
S0      0.0145   0.5795   0.8642     S
O1      0.1341   0.5901   0.8711     O
O2      0.9847   0.4939   0.8901     O
O3      0.9867   0.6679   0.9139     O
C4      0.9269   0.5584   0.7442     C
C5      0.8086   0.5542   0.7173     C
C6      0.7397   0.5338   0.6237     C
C7       0.787   0.5174   0.5556     C
C8      0.9062   0.5221   0.5846     C
C9      0.9762   0.5424   0.6783     C
C10     0.7132   0.4953   0.4545     C
C11      0.611   0.5335    0.425     C
C12     0.5426   0.5146   0.3306     C
C13     0.5764   0.4562    0.265     C
C14      0.677   0.4165   0.2929     C
C15      0.745   0.4364   0.3865     C
S16       0.49   0.4327   0.1443     S
O17     0.5186   0.3437   0.0958     O
O18     0.3707   0.4231   0.1379     O
O19     0.5188   0.5177   0.1168     O
H20     0.7754   0.5651   0.7628     H
H21      0.659    0.531   0.6055     H
H22     0.9399   0.5112   0.5394     H
H23     0.0569   0.5453   0.6968     H
H24     0.5874   0.5732     0.47     H
H25     0.4735   0.5415   0.3117     H
H26     0.6992   0.3756   0.2476     H
H27     0.8143   0.4097   0.4049     H
C28     0.2793   0.1625   0.1014     C
N29     0.3857    0.172   0.1043     N
N30     0.2231   0.2393      0.1     N
N31     0.2306   0.0776   0.1008     N
H32      0.424   0.1224   0.1058     H
H33      0.418    0.228   0.1047     H
H34     0.2568    0.295   0.1011     H
H35     0.1525   0.2341   0.0981     H
H36      0.269   0.0281   0.1023     H
H37       0.16   0.0712   0.0989     H
S38     0.0163   0.0759   0.8658     S
O39     0.9878   0.1646   0.9143     O
O40      0.136   0.0867   0.8736     O
O41     0.9858   0.9905   0.8919     O
C42       0.93    0.053   0.7456     C
C43     0.8111    0.037   0.7174     C
C44      0.743   0.0173    0.624     C
C45     0.7914   0.0133   0.5566     C
C46     0.9099   0.0311    0.587     C
C47     0.9799   0.0512   0.6809     C
C48     0.7169   0.9907   0.4563     C
C49     0.6118   0.0253   0.4278     C
C50     0.5427   0.0054   0.3343     C
C51     0.5776   0.9494   0.2674     C
C52     0.6809    0.913   0.2939     C
C53       0.75   0.9342   0.3875     C
S54     0.4918   0.9312   0.1474     S
O55     0.5225   0.0189   0.1248     O
O56     0.3722   0.9212   0.1406     O
O57     0.5196   0.8438   0.0961     O
H58     0.7771   0.0397   0.7619     H
H59      0.662   0.0063   0.6048     H
H60     0.9442   0.0295   0.5428     H
H61     0.0609   0.0635   0.7004     H
H62     0.5873   0.0629   0.4732     H
H63      0.472   0.0299   0.3159     H
H64      0.704   0.8739   0.2483     H
H65      0.821   0.9101   0.4054     H
C66     0.7691   0.1499   0.0841     C
N67     0.7199   0.0652   0.0818     N
N68     0.8733   0.1587   0.0835     N
N69     0.7146   0.2279   0.0867     N
H70     0.7567   0.0146   0.0798     H
H71     0.6504   0.0595   0.0823     H
H72     0.9101   0.1082   0.0815     H
H73     0.9058    0.215    0.085     H
H74     0.7483   0.2836   0.0879     H
H75     0.6451   0.2234   0.0871     H
H76     0.1673   0.2195   0.3609     H
Br77     0.147   0.2123    0.305    Br
C78     0.0869   0.2694   0.5359     C
C79     0.9711   0.2426   0.4892     C
C80     0.9286   0.2085   0.3924     C
C81     0.0015   0.1998   0.3448     C
C82      0.117   0.2258   0.3934     C
C83     0.1614   0.2612   0.4889     C
Br84    0.1492   0.3195   0.6676    Br
Br85    0.7693   0.1719   0.3258    Br
H86      0.921   0.2472   0.5218     H
H87     0.9715   0.1759   0.2789     H
H88     0.2417   0.2798   0.5222     H
C89     0.2233   0.3471   0.9083     C
N90     0.1183   0.3379   0.9071     N
N91     0.2809   0.2714     0.91     N
N92     0.2708   0.4315   0.9066     N
H93     0.0797   0.3873   0.9051     H
H94     0.0868   0.2824   0.9082     H
H95     0.2487   0.2157   0.9102     H
H96      0.351   0.2772   0.9108     H
H97      0.232   0.4808   0.9047     H
H98     0.3409   0.4378   0.9074     H
C99     0.6834   0.2664    0.611     C
C100     0.643   0.2773   0.5218     C
C101    0.5255   0.2527   0.4704     C
C102    0.4513   0.2194   0.5061     C
C103     0.494   0.2127   0.5967     C
C104    0.6099   0.2359   0.6503     C
Br105   0.8438   0.2953   0.6834    Br
Br106   0.4674   0.2611   0.3458    Br
H107    0.6933   0.3006   0.4969     H
H108    0.3718   0.2014    0.469     H
H109    0.4429   0.1918   0.6221     H
H110     0.639   0.2314   0.7123     H
C111    0.7226   0.3376   0.8997     C
N112     0.779   0.2614   0.9011     N
N113    0.7708   0.4229   0.9005     N
N114    0.6168   0.3285   0.8974     N
H115    0.7457   0.2057   0.9005     H
H116    0.8494   0.2667   0.9026     H
H117    0.7322   0.4724   0.8996     H
H118    0.8411   0.4297    0.902     H
H119    0.5843   0.2726   0.8968     H
H120     0.579   0.3784   0.8965     H
loop_
_geom_bond_atom_site_label_1
_geom_bond_atom_site_label_2
_geom_bond_distance
_geom_bond_site_symmetry_2
_ccdc_geom_bond_type
H32   O55    1.99324       .     S
O55   H32    1.99324       .     S
H33   O17    2.10502       .     S
O17   H33    2.10502       .     S
H34   O18    2.09881       .     S
O18   H34    2.09881       .     S
H36   O56    2.12322   1_545     S
O56   H36    2.12322   1_565     S
H71   O55    2.07398       .     S
O55   H71    2.07398       .     S
H75   O17    2.42032       .     S
O17   H75    2.42032       .     S
H93   O2     1.99656   1_455     S
O2    H93    1.99656   1_655     S
H94   O39    2.09591   1_455     S
O39   H94    2.09591   1_655     S
H95   O40    2.10124       .     S
O40   H95    2.10124       .     S
H97   O1     2.09780       .     S
O1    H97    2.09780       .     S
H116  O39    2.32003       .     S
O39   H116   2.32003       .     S
H118  O2     2.08456       .     S
O2    H118   2.08456       .     S
S0    O1     1.47217       .     S
O1    S0     1.47217       .     S
S0    O2     1.46208   1_455     S
O2    S0     1.46208   1_655     S
S0    O3     1.45484   1_455     S
O3    S0     1.45484   1_655     S
S0    C4     1.78362   1_455     S
C4    S0     1.78362   1_655     S
C4    C5     1.39300       .     S
C5    C4     1.39300       .     S
C4    C9     1.38636       .     S
C9    C4     1.38636       .     S
C5    C6     1.38704       .     S
C6    C5     1.38704       .     S
C5    H20    0.94950       .     S
H20   C5     0.94950       .     S
C6    C7     1.39942       .     S
C7    C6     1.39942       .     S
C6    H21    0.95054       .     S
H21   C6     0.95054       .     S
C7    C8     1.40079       .     S
C8    C7     1.40079       .     S
C7    C10    1.49632       .     S
C10   C7     1.49632       .     S
C8    C9     1.39172       .     S
C9    C8     1.39172       .     S
C8    H22    0.94983       .     S
H22   C8     0.94983       .     S
C9    H23    0.95001   1_655     S
H23   C9     0.95001   1_455     S
C10   C11    1.39596       .     S
C11   C10    1.39596       .     S
C10   C15    1.40006       .     S
C15   C10    1.40006       .     S
C11   C12    1.39798       .     S
C12   C11    1.39798       .     S
C11   H24    0.95044       .     S
H24   C11    0.95044       .     S
C12   C13    1.38414       .     S
C13   C12    1.38414       .     S
C12   H25    0.95027       .     S
H25   C12    0.95027       .     S
C13   C14    1.38813       .     S
C14   C13    1.38813       .     S
C13   S16    1.78552       .     S
S16   C13    1.78552       .     S
C14   C15    1.38508       .     S
C15   C14    1.38508       .     S
C14   H26    0.95074       .     S
H26   C14    0.95074       .     S
C15   H27    0.95017       .     S
H27   C15    0.95017       .     S
S16   O17    1.45819       .     S
O17   S16    1.45819       .     S
S16   O18    1.47049       .     S
O18   S16    1.47049       .     S
S16   O19    1.46542       .     S
O19   S16    1.46542       .     S
C28   N29    1.32707       .     S
N29   C28    1.32707       .     S
C28   N30    1.33950       .     S
N30   C28    1.33950       .     S
C28   N31    1.33403       .     S
N31   C28    1.33403       .     S
N29   H32    0.87982       .     S
H32   N29    0.87982       .     S
N29   H33    0.88083       .     S
H33   N29    0.88083       .     S
N30   H34    0.88030       .     S
H34   N30    0.88030       .     S
N30   H35    0.88012       .     S
H35   N30    0.88012       .     S
N31   H36    0.87935       .     S
H36   N31    0.87935       .     S
N31   H37    0.88076       .     S
H37   N31    0.88076       .     S
S38   O39    1.45432   1_455     S
O39   S38    1.45432   1_655     S
S38   O40    1.46902       .     S
O40   S38    1.46902       .     S
S38   O41    1.46422   1_445     S
O41   S38    1.46422   1_665     S
S38   C42    1.77960   1_455     S
C42   S38    1.77960   1_655     S
C42   C43    1.39408       .     S
C43   C42    1.39408       .     S
C42   C47    1.38896       .     S
C47   C42    1.38896       .     S
C43   C44    1.38301       .     S
C44   C43    1.38301       .     S
C43   H58    0.94964       .     S
H58   C43    0.94964       .     S
C44   C45    1.41049       .     S
C45   C44    1.41049       .     S
C44   H59    0.94978       .     S
H59   C44    0.94978       .     S
C45   C46    1.38716       .     S
C46   C45    1.38716       .     S
C45   C48    1.48746   1_545     S
C48   C45    1.48746   1_565     S
C46   C47    1.39454       .     S
C47   C46    1.39454       .     S
C46   H60    0.95005       .     S
H60   C46    0.95005       .     S
C47   H61    0.95012   1_655     S
H61   C47    0.95012   1_455     S
C48   C49    1.39933   1_565     S
C49   C48    1.39933   1_545     S
C48   C53    1.40519       .     S
C53   C48    1.40519       .     S
C49   C50    1.38695       .     S
C50   C49    1.38695       .     S
C49   H62    0.94976       .     S
H62   C49    0.94976       .     S
C50   C51    1.39349   1_545     S
C51   C50    1.39349   1_565     S
C50   H63    0.94899       .     S
H63   C50    0.94899       .     S
C51   C52    1.39045       .     S
C52   C51    1.39045       .     S
C51   S54    1.78418       .     S
S54   C51    1.78418       .     S
C52   C53    1.38672       .     S
C53   C52    1.38672       .     S
C52   H64    0.94996       .     S
H64   C52    0.94996       .     S
C53   H65    0.94894       .     S
H65   C53    0.94894       .     S
S54   O55    1.46288   1_565     S
O55   S54    1.46288   1_545     S
S54   O56    1.47239       .     S
O56   S54    1.47239       .     S
S54   O57    1.45525       .     S
O57   S54    1.45525       .     S
C66   N67    1.32396       .     S
N67   C66    1.32396       .     S
C66   N68    1.31965       .     S
N68   C66    1.31965       .     S
C66   N69    1.34150       .     S
N69   C66    1.34150       .     S
N67   H70    0.88079       .     S
H70   N67    0.88079       .     S
N67   H71    0.88069       .     S
H71   N67    0.88069       .     S
N68   H72    0.87959       .     S
H72   N68    0.87959       .     S
N68   H73    0.87914       .     S
H73   N68    0.87914       .     S
N69   H74    0.87970       .     S
H74   N69    0.87970       .     S
N69   H75    0.87944       .     S
H75   N69    0.87944       .     S
H76   Br77   0.81726       .     S
Br77  H76    0.81726       .     S
H76   C82    0.94983       .     S
C82   H76    0.94983       .     S
Br77  C81    2.16271       .     S
C81   Br77   2.16271       .     S
Br77  C82    1.56415       .     S
C82   Br77   1.56415       .     S
C78   C79    1.36781   1_455     S
C79   C78    1.36781   1_655     S
C78   C83    1.39308       .     S
C83   C78    1.39308       .     S
C78   Br84   1.90097       .     S
Br84  C78    1.90097       .     S
C79   C80    1.39495       .     S
C80   C79    1.39495       .     S
C79   H86    0.94934       .     S
H86   C79    0.94934       .     S
C80   C81    1.38276   1_655     S
C81   C80    1.38276   1_455     S
C80   Br85   1.88533       .     S
Br85  C80    1.88533       .     S
C81   C82    1.36689       .     S
C82   C81    1.36689       .     S
C81   H87    0.95001   1_455     S
H87   C81    0.95001   1_655     S
C82   C83    1.37740       .     S
C83   C82    1.37740       .     S
C83   H88    0.95005       .     S
H88   C83    0.95005       .     S
C89   N90    1.31909       .     S
N90   C89    1.31909       .     S
C89   N91    1.33632       .     S
N91   C89    1.33632       .     S
C89   N92    1.33579       .     S
N92   C89    1.33579       .     S
N90   H93    0.87986       .     S
H93   N90    0.87986       .     S
N90   H94    0.87966       .     S
H94   N90    0.87966       .     S
N91   H95    0.88019       .     S
H95   N91    0.88019       .     S
N91   H96    0.88043       .     S
H96   N91    0.88043       .     S
N92   H97    0.88007       .     S
H97   N92    0.88007       .     S
N92   H98    0.88077       .     S
H98   N92    0.88077       .     S
C99   C100   1.38774       .     S
C100  C99    1.38774       .     S
C99   C104   1.40107       .     S
C104  C99    1.40107       .     S
C99   Br105  1.90486       .     S
Br105 C99    1.90486       .     S
C100  C101   1.39298       .     S
C101  C100   1.39298       .     S
C100  H107   0.94885       .     S
H107  C100   0.94885       .     S
C101  C102   1.38098       .     S
C102  C101   1.38098       .     S
C101  Br106  1.90344       .     S
Br106 C101   1.90344       .     S
C102  C103   1.38703       .     S
C103  C102   1.38703       .     S
C102  H108   0.94989       .     S
H108  C102   0.94989       .     S
C103  C104   1.38106       .     S
C104  C103   1.38106       .     S
C103  H109   0.94908       .     S
H109  C103   0.94908       .     S
C104  H110   0.94874       .     S
H110  C104   0.94874       .     S
C111  N112   1.33360       .     S
N112  C111   1.33360       .     S
C111  N113   1.33533       .     S
N113  C111   1.33533       .     S
C111  N114   1.32268       .     S
N114  C111   1.32268       .     S
N112  H115   0.88115       .     S
H115  N112   0.88115       .     S
N112  H116   0.87989       .     S
H116  N112   0.87989       .     S
N113  H117   0.88062       .     S
H117  N113   0.88062       .     S
N113  H118   0.87957       .     S
H118  N113   0.87957       .     S
N114  H119   0.87939       .     S
H119  N114   0.87939       .     S
N114  H120   0.87957       .     S
H120  N114   0.87957       .     S
O55   H32    1.99324       .     S
H32   O55    1.99324       .     S
O17   H33    2.10502       .     S
H33   O17    2.10502       .     S
O18   H34    2.09881       .     S
H34   O18    2.09881       .     S
O56   H36    2.12322   1_565     S
H36   O56    2.12322   1_545     S
O55   H71    2.07398       .     S
H71   O55    2.07398       .     S
O17   H75    2.42032       .     S
H75   O17    2.42032       .     S
O2    H93    1.99656   1_655     S
H93   O2     1.99656   1_455     S
O39   H94    2.09591   1_655     S
H94   O39    2.09591   1_455     S
O40   H95    2.10124       .     S
H95   O40    2.10124       .     S
O1    H97    2.09780       .     S
H97   O1     2.09780       .     S
O39   H116   2.32003       .     S
H116  O39    2.32003       .     S
O2    H118   2.08456       .     S
H118  O2     2.08456       .     S
O1    S0     1.47217       .     S
S0    O1     1.47217       .     S
O2    S0     1.46208   1_655     S
S0    O2     1.46208   1_455     S
O3    S0     1.45484   1_655     S
S0    O3     1.45484   1_455     S
C4    S0     1.78362   1_655     S
S0    C4     1.78362   1_455     S
C5    C4     1.39300       .     S
C4    C5     1.39300       .     S
C9    C4     1.38636       .     S
C4    C9     1.38636       .     S
C6    C5     1.38704       .     S
C5    C6     1.38704       .     S
H20   C5     0.94950       .     S
C5    H20    0.94950       .     S
C7    C6     1.39942       .     S
C6    C7     1.39942       .     S
H21   C6     0.95054       .     S
C6    H21    0.95054       .     S
C8    C7     1.40079       .     S
C7    C8     1.40079       .     S
C10   C7     1.49632       .     S
C7    C10    1.49632       .     S
C9    C8     1.39172       .     S
C8    C9     1.39172       .     S
H22   C8     0.94983       .     S
C8    H22    0.94983       .     S
H23   C9     0.95001   1_455     S
C9    H23    0.95001   1_655     S
C11   C10    1.39596       .     S
C10   C11    1.39596       .     S
C15   C10    1.40006       .     S
C10   C15    1.40006       .     S
C12   C11    1.39798       .     S
C11   C12    1.39798       .     S
H24   C11    0.95044       .     S
C11   H24    0.95044       .     S
C13   C12    1.38414       .     S
C12   C13    1.38414       .     S
H25   C12    0.95027       .     S
C12   H25    0.95027       .     S
C14   C13    1.38813       .     S
C13   C14    1.38813       .     S
S16   C13    1.78552       .     S
C13   S16    1.78552       .     S
C15   C14    1.38508       .     S
C14   C15    1.38508       .     S
H26   C14    0.95074       .     S
C14   H26    0.95074       .     S
H27   C15    0.95017       .     S
C15   H27    0.95017       .     S
O17   S16    1.45819       .     S
S16   O17    1.45819       .     S
O18   S16    1.47049       .     S
S16   O18    1.47049       .     S
O19   S16    1.46542       .     S
S16   O19    1.46542       .     S
N29   C28    1.32707       .     S
C28   N29    1.32707       .     S
N30   C28    1.33950       .     S
C28   N30    1.33950       .     S
N31   C28    1.33403       .     S
C28   N31    1.33403       .     S
H32   N29    0.87982       .     S
N29   H32    0.87982       .     S
H33   N29    0.88083       .     S
N29   H33    0.88083       .     S
H34   N30    0.88030       .     S
N30   H34    0.88030       .     S
H35   N30    0.88012       .     S
N30   H35    0.88012       .     S
H36   N31    0.87935       .     S
N31   H36    0.87935       .     S
H37   N31    0.88076       .     S
N31   H37    0.88076       .     S
O39   S38    1.45432   1_655     S
S38   O39    1.45432   1_455     S
O40   S38    1.46902       .     S
S38   O40    1.46902       .     S
O41   S38    1.46422   1_665     S
S38   O41    1.46422   1_445     S
C42   S38    1.77960   1_655     S
S38   C42    1.77960   1_455     S
C43   C42    1.39408       .     S
C42   C43    1.39408       .     S
C47   C42    1.38896       .     S
C42   C47    1.38896       .     S
C44   C43    1.38301       .     S
C43   C44    1.38301       .     S
H58   C43    0.94964       .     S
C43   H58    0.94964       .     S
C45   C44    1.41049       .     S
C44   C45    1.41049       .     S
H59   C44    0.94978       .     S
C44   H59    0.94978       .     S
C46   C45    1.38716       .     S
C45   C46    1.38716       .     S
C48   C45    1.48746   1_565     S
C45   C48    1.48746   1_545     S
C47   C46    1.39454       .     S
C46   C47    1.39454       .     S
H60   C46    0.95005       .     S
C46   H60    0.95005       .     S
H61   C47    0.95012   1_455     S
C47   H61    0.95012   1_655     S
C49   C48    1.39933   1_545     S
C48   C49    1.39933   1_565     S
C53   C48    1.40519       .     S
C48   C53    1.40519       .     S
C50   C49    1.38695       .     S
C49   C50    1.38695       .     S
H62   C49    0.94976       .     S
C49   H62    0.94976       .     S
C51   C50    1.39349   1_565     S
C50   C51    1.39349   1_545     S
H63   C50    0.94899       .     S
C50   H63    0.94899       .     S
C52   C51    1.39045       .     S
C51   C52    1.39045       .     S
S54   C51    1.78418       .     S
C51   S54    1.78418       .     S
C53   C52    1.38672       .     S
C52   C53    1.38672       .     S
H64   C52    0.94996       .     S
C52   H64    0.94996       .     S
H65   C53    0.94894       .     S
C53   H65    0.94894       .     S
O55   S54    1.46288   1_545     S
S54   O55    1.46288   1_565     S
O56   S54    1.47239       .     S
S54   O56    1.47239       .     S
O57   S54    1.45525       .     S
S54   O57    1.45525       .     S
N67   C66    1.32396       .     S
C66   N67    1.32396       .     S
N68   C66    1.31965       .     S
C66   N68    1.31965       .     S
N69   C66    1.34150       .     S
C66   N69    1.34150       .     S
H70   N67    0.88079       .     S
N67   H70    0.88079       .     S
H71   N67    0.88069       .     S
N67   H71    0.88069       .     S
H72   N68    0.87959       .     S
N68   H72    0.87959       .     S
H73   N68    0.87914       .     S
N68   H73    0.87914       .     S
H74   N69    0.87970       .     S
N69   H74    0.87970       .     S
H75   N69    0.87944       .     S
N69   H75    0.87944       .     S
Br77  H76    0.81726       .     S
H76   Br77   0.81726       .     S
C82   H76    0.94983       .     S
H76   C82    0.94983       .     S
C81   Br77   2.16271       .     S
Br77  C81    2.16271       .     S
C82   Br77   1.56415       .     S
Br77  C82    1.56415       .     S
C79   C78    1.36781   1_655     S
C78   C79    1.36781   1_455     S
C83   C78    1.39308       .     S
C78   C83    1.39308       .     S
Br84  C78    1.90097       .     S
C78   Br84   1.90097       .     S
C80   C79    1.39495       .     S
C79   C80    1.39495       .     S
H86   C79    0.94934       .     S
C79   H86    0.94934       .     S
C81   C80    1.38276   1_455     S
C80   C81    1.38276   1_655     S
Br85  C80    1.88533       .     S
C80   Br85   1.88533       .     S
C82   C81    1.36689       .     S
C81   C82    1.36689       .     S
H87   C81    0.95001   1_655     S
C81   H87    0.95001   1_455     S
C83   C82    1.37740       .     S
C82   C83    1.37740       .     S
H88   C83    0.95005       .     S
C83   H88    0.95005       .     S
N90   C89    1.31909       .     S
C89   N90    1.31909       .     S
N91   C89    1.33632       .     S
C89   N91    1.33632       .     S
N92   C89    1.33579       .     S
C89   N92    1.33579       .     S
H93   N90    0.87986       .     S
N90   H93    0.87986       .     S
H94   N90    0.87966       .     S
N90   H94    0.87966       .     S
H95   N91    0.88019       .     S
N91   H95    0.88019       .     S
H96   N91    0.88043       .     S
N91   H96    0.88043       .     S
H97   N92    0.88007       .     S
N92   H97    0.88007       .     S
H98   N92    0.88077       .     S
N92   H98    0.88077       .     S
C100  C99    1.38774       .     S
C99   C100   1.38774       .     S
C104  C99    1.40107       .     S
C99   C104   1.40107       .     S
Br105 C99    1.90486       .     S
C99   Br105  1.90486       .     S
C101  C100   1.39298       .     S
C100  C101   1.39298       .     S
H107  C100   0.94885       .     S
C100  H107   0.94885       .     S
C102  C101   1.38098       .     S
C101  C102   1.38098       .     S
Br106 C101   1.90344       .     S
C101  Br106  1.90344       .     S
C103  C102   1.38703       .     S
C102  C103   1.38703       .     S
H108  C102   0.94989       .     S
C102  H108   0.94989       .     S
C104  C103   1.38106       .     S
C103  C104   1.38106       .     S
H109  C103   0.94908       .     S
C103  H109   0.94908       .     S
H110  C104   0.94874       .     S
C104  H110   0.94874       .     S
N112  C111   1.33360       .     S
C111  N112   1.33360       .     S
N113  C111   1.33533       .     S
C111  N113   1.33533       .     S
N114  C111   1.32268       .     S
C111  N114   1.32268       .     S
H115  N112   0.88115       .     S
N112  H115   0.88115       .     S
H116  N112   0.87989       .     S
N112  H116   0.87989       .     S
H117  N113   0.88062       .     S
N113  H117   0.88062       .     S
H118  N113   0.87957       .     S
N113  H118   0.87957       .     S
H119  N114   0.87939       .     S
N114  H119   0.87939       .     S
H120  N114   0.87957       .     S
N114  H120   0.87957       .     S
