data_I
_chemical_name_common  '/data/user2/wty/HOF/MOFDiff/mofdiff/data/test/1_2'
_cell_length_a  6.16050
_cell_length_b  7.26540
_cell_length_c 13.86990
_cell_angle_alpha 95.75600
_cell_angle_beta  93.96900
_cell_angle_gamma 92.53200
_space_group_name_H-M_alt      'P 1'


loop_
_space_group_symop_operation_xyz
  'x, y, z' 

loop_
_atom_site_label
_atom_site_fract_x
_atom_site_fract_y
_atom_site_fract_z
_atom_site_type_symbol
S0      0.3283   0.2501   0.8598     S
O1       0.091   0.2365   0.8624     O
O2      0.4151   0.4418   0.8745     O
O3      0.4371   0.1312   0.9243     O
C4      0.3845   0.1652     0.74     C
C5      0.2311   0.0539   0.6805     C
C6      0.2781   0.9885   0.5875     C
C7      0.4764   0.0325   0.5509     C
C8      0.6288   0.1426   0.6128     C
C9      0.5844   0.2085   0.7061     C
C10     0.5236   0.9675   0.4491     C
C11     0.7219   0.0115   0.4125     C
C12     0.7689   0.9461   0.3195     C
C13     0.6155   0.8348     0.26     C
S14     0.6717   0.7499   0.1402     S
O15      0.909   0.7635   0.1376     O
O16     0.5849   0.5582   0.1255     O
O17     0.5629   0.8688   0.0757     O
C18     0.4156   0.7915   0.2939     C
C19     0.3712   0.8574   0.3872     C
C20     0.9565   0.7505   0.8997     C
N21     0.8618   0.5832   0.9014     N
N22     0.1705   0.7687   0.8972     N
N23     0.8386   0.8995   0.8983     N
loop_
_geom_bond_atom_site_label_1
_geom_bond_atom_site_label_2
_geom_bond_distance
_geom_bond_site_symmetry_2
_ccdc_geom_bond_type
S0    O1     1.46404       .     S
O1    S0     1.46404       .     S
S0    O2     1.45927       .     S
O2    S0     1.45927       .     S
S0    O3     1.45568       .     S
O3    S0     1.45568       .     S
S0    C4     1.77601       .     S
C4    S0     1.77601       .     S
C4    C5     1.38516       .     S
C5    C4     1.38516       .     S
C4    C9     1.38282       .     S
C9    C4     1.38282       .     S
C5    C6     1.38361   1_545     S
C6    C5     1.38361   1_565     S
C6    C7     1.39146   1_565     S
C7    C6     1.39146   1_545     S
C7    C8     1.39382       .     S
C8    C7     1.39382       .     S
C7    C10    1.49546   1_545     S
C10   C7     1.49546   1_565     S
C8    C9     1.38381       .     S
C9    C8     1.38381       .     S
C10   C11    1.39146   1_565     S
C11   C10    1.39146   1_545     S
C10   C19    1.39382       .     S
C19   C10    1.39382       .     S
C11   C12    1.38361   1_545     S
C12   C11    1.38361   1_565     S
C12   C13    1.38516       .     S
C13   C12    1.38516       .     S
C13   S14    1.77602       .     S
S14   C13    1.77602       .     S
C13   C18    1.38282       .     S
C18   C13    1.38282       .     S
S14   O15    1.46404       .     S
O15   S14    1.46404       .     S
S14   O16    1.45927       .     S
O16   S14    1.45927       .     S
S14   O17    1.45567       .     S
O17   S14    1.45567       .     S
C18   C19    1.38381       .     S
C19   C18    1.38381       .     S
C20   N21    1.32791       .     S
N21   C20    1.32791       .     S
C20   N22    1.32234   1_655     S
N22   C20    1.32234   1_455     S
C20   N23    1.33100       .     S
N23   C20    1.33100       .     S
O1    S0     1.46404       .     S
S0    O1     1.46404       .     S
O2    S0     1.45927       .     S
S0    O2     1.45927       .     S
O3    S0     1.45568       .     S
S0    O3     1.45568       .     S
C4    S0     1.77601       .     S
S0    C4     1.77601       .     S
C5    C4     1.38516       .     S
C4    C5     1.38516       .     S
C9    C4     1.38282       .     S
C4    C9     1.38282       .     S
C6    C5     1.38361   1_565     S
C5    C6     1.38361   1_545     S
C7    C6     1.39146   1_545     S
C6    C7     1.39146   1_565     S
C8    C7     1.39382       .     S
C7    C8     1.39382       .     S
C10   C7     1.49546   1_565     S
C7    C10    1.49546   1_545     S
C9    C8     1.38381       .     S
C8    C9     1.38381       .     S
C11   C10    1.39146   1_545     S
C10   C11    1.39146   1_565     S
C19   C10    1.39382       .     S
C10   C19    1.39382       .     S
C12   C11    1.38361   1_565     S
C11   C12    1.38361   1_545     S
C13   C12    1.38516       .     S
C12   C13    1.38516       .     S
S14   C13    1.77602       .     S
C13   S14    1.77602       .     S
C18   C13    1.38282       .     S
C13   C18    1.38282       .     S
O15   S14    1.46404       .     S
S14   O15    1.46404       .     S
O16   S14    1.45927       .     S
S14   O16    1.45927       .     S
O17   S14    1.45567       .     S
S14   O17    1.45567       .     S
C19   C18    1.38381       .     S
C18   C19    1.38381       .     S
N21   C20    1.32791       .     S
C20   N21    1.32791       .     S
N22   C20    1.32234   1_455     S
C20   N22    1.32234   1_655     S
N23   C20    1.33100       .     S
C20   N23    1.33100       .     S
