data_I
_chemical_name_common  '/data/user2/wty/HOF/MOFDiff/mofdiff/data/test/1_3'
_cell_length_a  6.16360
_cell_length_b  7.26880
_cell_length_c 13.95240
_cell_angle_alpha 96.08300
_cell_angle_beta  93.54000
_cell_angle_gamma 92.47200
_space_group_name_H-M_alt      'P 1'


loop_
_space_group_symop_operation_xyz
  'x, y, z' 

loop_
_atom_site_label
_atom_site_fract_x
_atom_site_fract_y
_atom_site_fract_z
_atom_site_type_symbol
C0      0.5428    0.752    0.099     C
N1      0.6603   0.6029   0.1007     N
N2      0.3282   0.7341   0.1014     N
N3       0.638   0.9182    0.097     N
H4       0.803   0.6141   0.1006     H
H5      0.5953   0.4931    0.102     H
H6      0.2498   0.8325   0.1017     H
H7      0.2642   0.6239   0.1026     H
H8      0.5589   0.0162   0.0973     H
H9      0.7803   0.9307   0.0954     H
S10     0.1711   0.2529   0.1404     S
O11     0.4082    0.266   0.1369     O
O12     0.0833   0.0617   0.1247     O
O13     0.0629    0.373   0.0774     O
C14     0.1152    0.337   0.2602     C
C15     0.2684   0.4456   0.3193     C
C16     0.2221   0.5108   0.4122     C
C17      0.023   0.4669   0.4494     C
C18     0.8708   0.3589   0.3872     C
C19     0.9154   0.2939   0.2944     C
H20     0.4059   0.4759   0.2962     H
H21     0.3283   0.5873   0.4519     H
H22     0.7323   0.3291   0.4094     H
H23     0.8087   0.2196   0.2539     H
C24      0.977   0.5331   0.5506     C
C25     0.7779   0.4892   0.5878     C
C26     0.7316   0.5544   0.6807     C
C27     0.8848    0.663   0.7398     C
S28     0.8289   0.7471   0.8596     S
O29     0.5918    0.734   0.8631     O
O30     0.9167   0.9383   0.8753     O
O31     0.9371    0.627   0.9226     O
C32     0.0846   0.7061   0.7056     C
C33     0.1292   0.6411   0.6128     C
H34     0.2677   0.6709   0.5906     H
H35     0.1913   0.7804   0.7461     H
H36     0.5941   0.5241   0.7038     H
H37     0.6717   0.4127   0.5481     H
loop_
_geom_bond_atom_site_label_1
_geom_bond_atom_site_label_2
_geom_bond_distance
_geom_bond_site_symmetry_2
_ccdc_geom_bond_type
H4    O13    2.43479   1_655     S
O13   H4     2.43479   1_455     S
H5    O11    2.08984       .     S
O11   H5     2.08984       .     S
H6    O12    2.00164   1_565     S
O12   H6     2.00164   1_545     S
H7    O13    2.14572       .     S
O13   H7     2.14572       .     S
H8    O11    2.11216       .     S
O11   H8     2.11216       .     S
H9    O12    2.05705   1_665     S
O12   H9     2.05705   1_445     S
C0    N1     1.33066       .     S
N1    C0     1.33066       .     S
C0    N2     1.32633       .     S
N2    C0     1.32633       .     S
C0    N3     1.32384       .     S
N3    C0     1.32384       .     S
N1    H4     0.87990       .     S
H4    N1     0.87990       .     S
N1    H5     0.87989       .     S
H5    N1     0.87989       .     S
N2    H6     0.88008       .     S
H6    N2     0.88008       .     S
N2    H7     0.87973       .     S
H7    N2     0.87973       .     S
N3    H8     0.88018   1_565     S
H8    N3     0.88018   1_545     S
N3    H9     0.87977       .     S
H9    N3     0.87977       .     S
S10   O11    1.46455       .     S
O11   S10    1.46455       .     S
S10   O12    1.45888       .     S
O12   S10    1.45888       .     S
S10   O13    1.45601       .     S
O13   S10    1.45601       .     S
S10   C14    1.77737       .     S
C14   S10    1.77737       .     S
C14   C15    1.37707       .     S
C15   C14    1.37707       .     S
C14   C19    1.38325   1_455     S
C19   C14    1.38325   1_655     S
C15   C16    1.38321       .     S
C16   C15    1.38321       .     S
C15   H20    0.95042       .     S
H20   C15    0.95042       .     S
C16   C17    1.39898       .     S
C17   C16    1.39898       .     S
C16   H21    0.95028       .     S
H21   C16    0.95028       .     S
C17   C18    1.39320   1_455     S
C18   C17    1.39320   1_655     S
C17   C24    1.49092   1_455     S
C24   C17    1.49092   1_655     S
C18   C19    1.37868       .     S
C19   C18    1.37868       .     S
C18   H22    0.95001       .     S
H22   C18    0.95001       .     S
C19   H23    0.94989       .     S
H23   C19    0.94989       .     S
C24   C25    1.39898       .     S
C25   C24    1.39898       .     S
C24   C33    1.39320   1_655     S
C33   C24    1.39320   1_455     S
C25   C26    1.38321       .     S
C26   C25    1.38321       .     S
C25   H37    0.95028       .     S
H37   C25    0.95028       .     S
C26   C27    1.37707       .     S
C27   C26    1.37707       .     S
C26   H36    0.95042       .     S
H36   C26    0.95042       .     S
C27   S28    1.77737       .     S
S28   C27    1.77737       .     S
C27   C32    1.38325   1_655     S
C32   C27    1.38325   1_455     S
S28   O29    1.46455       .     S
O29   S28    1.46455       .     S
S28   O30    1.45888       .     S
O30   S28    1.45888       .     S
S28   O31    1.45601       .     S
O31   S28    1.45601       .     S
C32   C33    1.37868       .     S
C33   C32    1.37868       .     S
C32   H35    0.94989       .     S
H35   C32    0.94989       .     S
C33   H34    0.95001       .     S
H34   C33    0.95001       .     S
O13   H4     2.43479   1_455     S
H4    O13    2.43479   1_655     S
O11   H5     2.08984       .     S
H5    O11    2.08984       .     S
O12   H6     2.00164   1_545     S
H6    O12    2.00164   1_565     S
O13   H7     2.14572       .     S
H7    O13    2.14572       .     S
O11   H8     2.11216       .     S
H8    O11    2.11216       .     S
O12   H9     2.05705   1_445     S
H9    O12    2.05705   1_665     S
N1    C0     1.33066       .     S
C0    N1     1.33066       .     S
N2    C0     1.32633       .     S
C0    N2     1.32633       .     S
N3    C0     1.32384       .     S
C0    N3     1.32384       .     S
H4    N1     0.87990       .     S
N1    H4     0.87990       .     S
H5    N1     0.87989       .     S
N1    H5     0.87989       .     S
H6    N2     0.88008       .     S
N2    H6     0.88008       .     S
H7    N2     0.87973       .     S
N2    H7     0.87973       .     S
H8    N3     0.88018   1_545     S
N3    H8     0.88018   1_565     S
H9    N3     0.87977       .     S
N3    H9     0.87977       .     S
O11   S10    1.46455       .     S
S10   O11    1.46455       .     S
O12   S10    1.45888       .     S
S10   O12    1.45888       .     S
O13   S10    1.45601       .     S
S10   O13    1.45601       .     S
C14   S10    1.77737       .     S
S10   C14    1.77737       .     S
C15   C14    1.37707       .     S
C14   C15    1.37707       .     S
C19   C14    1.38325   1_655     S
C14   C19    1.38325   1_455     S
C16   C15    1.38321       .     S
C15   C16    1.38321       .     S
H20   C15    0.95042       .     S
C15   H20    0.95042       .     S
C17   C16    1.39898       .     S
C16   C17    1.39898       .     S
H21   C16    0.95028       .     S
C16   H21    0.95028       .     S
C18   C17    1.39320   1_655     S
C17   C18    1.39320   1_455     S
C24   C17    1.49092   1_655     S
C17   C24    1.49092   1_455     S
C19   C18    1.37868       .     S
C18   C19    1.37868       .     S
H22   C18    0.95001       .     S
C18   H22    0.95001       .     S
H23   C19    0.94989       .     S
C19   H23    0.94989       .     S
C25   C24    1.39898       .     S
C24   C25    1.39898       .     S
C33   C24    1.39320   1_455     S
C24   C33    1.39320   1_655     S
C26   C25    1.38321       .     S
C25   C26    1.38321       .     S
H37   C25    0.95028       .     S
C25   H37    0.95028       .     S
C27   C26    1.37707       .     S
C26   C27    1.37707       .     S
H36   C26    0.95042       .     S
C26   H36    0.95042       .     S
S28   C27    1.77737       .     S
C27   S28    1.77737       .     S
C32   C27    1.38325   1_455     S
C27   C32    1.38325   1_655     S
O29   S28    1.46455       .     S
S28   O29    1.46455       .     S
O30   S28    1.45888       .     S
S28   O30    1.45888       .     S
O31   S28    1.45601       .     S
S28   O31    1.45601       .     S
C33   C32    1.37868       .     S
C32   C33    1.37868       .     S
H35   C32    0.94989       .     S
C32   H35    0.94989       .     S
H34   C33    0.95001       .     S
C33   H34    0.95001       .     S
