data_I
_chemical_name_common  '/data/user2/wty/HOF/MOFDiff/mofdiff/data/test/1_4'
_cell_length_a  6.19270
_cell_length_b  7.30270
_cell_length_c 14.19510
_cell_angle_alpha 96.82500
_cell_angle_beta  92.44900
_cell_angle_gamma 92.34900
_space_group_name_H-M_alt      'P 1'


loop_
_space_group_symop_operation_xyz
  'x, y, z' 

loop_
_atom_site_label
_atom_site_fract_x
_atom_site_fract_y
_atom_site_fract_z
_atom_site_type_symbol
C0      0.4586   0.2434   0.4036     C
N1      0.6728    0.259   0.4009     N
N2      0.3636   0.0766   0.4065     N
N3      0.3421   0.3921    0.402     N
H4      0.7374   0.3677   0.3981     H
H5      0.7499   0.1606    0.402     H
H6      0.4428   0.9793   0.4066     H
H7       0.222   0.0642   0.4082     H
H8      0.4068   0.5007   0.3992     H
H9      0.2002   0.3819   0.4037     H
H10     0.2747   0.0343   0.9136     H
C11     0.4293   0.0331   0.0218     C
C12     0.3204   0.0348   0.9343     C
C13     0.2755   0.1189    0.059     C
C14     0.6439   0.9604   0.0278     C
H15     0.1843   0.0897   0.9307     H
H16     0.1397   0.1749   0.0593     H
C17     0.5707   0.9669   0.9782     C
I18      0.699   0.8486   0.8516     I
C19     0.4094   0.9573   0.8538     C
C20     0.6796   0.9652   0.0657     C
C21     0.3561   0.0396   0.9722     C
C22     0.7245   0.8811    0.941     C
C23     0.5986   0.8854   0.8519     C
H24     0.3284   0.9556   0.7953     H
H25     0.8157   0.9103   0.0693     H
H26     0.8603   0.8251   0.9407     H
H27      0.654   0.8364   0.7933     H
I28      0.301   0.1514   0.1484     I
C29     0.5906   0.0427   0.1462     C
C30     0.4014   0.1146   0.1481     C
H31     0.6716   0.0444   0.2047     H
H32      0.346   0.1636   0.2067     H
H33     0.7253   0.9657   0.0864     H
S34     0.8311   0.7404   0.3592     S
O35     0.9191   0.9315   0.3763     O
O36      0.595    0.728   0.3646     O
O37      0.938    0.618   0.4187     O
C38     0.8872   0.6583   0.2393     C
C39     0.0855      0.7   0.2051     C
C40     0.1284   0.6364   0.1123     C
C41     0.9758   0.5328   0.0512     C
C42     0.7778   0.4914   0.0876     C
C43     0.7331   0.5546    0.181     C
H44     0.1924    0.772   0.2449     H
H45     0.2666   0.6645   0.0897     H
H46     0.6708   0.4186   0.0483     H
H47     0.5958   0.5261   0.2044     H
C48     0.0242   0.4672   0.9488     C
C49     0.8716   0.3636   0.8877     C
C50     0.9145      0.3   0.7949     C
C51     0.1128   0.3417   0.7607     C
S52     0.1689   0.2596   0.6408     S
O53     0.0809   0.0685   0.6237     O
O54      0.405    0.272   0.6354     O
O55      0.062    0.382   0.5813     O
C56     0.2669   0.4454    0.819     C
C57     0.2222   0.5086   0.9124     C
H58     0.3292   0.5814   0.9517     H
H59     0.4042   0.4739   0.7956     H
H60     0.8076    0.228   0.7551     H
H61     0.7334   0.3355   0.9103     H
loop_
_geom_bond_atom_site_label_1
_geom_bond_atom_site_label_2
_geom_bond_distance
_geom_bond_site_symmetry_2
_ccdc_geom_bond_type
H4    O37    2.15072       .     S
O37   H4     2.15072       .     S
H5    O35    2.01529   1_545     S
O35   H5     2.01529   1_565     S
H6    O36    2.13106       .     S
O36   H6     2.13106       .     S
H7    O35    2.08249   1_445     S
O35   H7     2.08249   1_665     S
H8    O36    2.10688       .     S
O36   H8     2.10688       .     S
H9    O37    2.41378   1_455     S
O37   H9     2.41378   1_655     S
C0    N1     1.32928       .     S
N1    C0     1.32928       .     S
C0    N2     1.33671       .     S
N2    C0     1.33671       .     S
C0    N3     1.33000       .     S
N3    C0     1.33000       .     S
N1    H4     0.88010       .     S
H4    N1     0.88010       .     S
N1    H5     0.88019       .     S
H5    N1     0.88019       .     S
N2    H6     0.87988   1_545     S
H6    N2     0.87988   1_565     S
N2    H7     0.87951       .     S
H7    N2     0.87951       .     S
N3    H8     0.87971       .     S
H8    N3     0.87971       .     S
N3    H9     0.88045       .     S
H9    N3     0.88045       .     S
H10   C12    0.39875       .     S
C12   H10    0.39875       .     S
H10   C19    1.31076   1_545     S
C19   H10    1.31076   1_565     S
H10   C21    0.94998       .     S
C21   H10    0.94998       .     S
C11   C12    1.38941   1_554     S
C12   C11    1.38941   1_556     S
C11   C13    1.26168       .     S
C13   C11    1.26168       .     S
C11   C14    1.45401   1_545     S
C14   C11    1.45401   1_565     S
C11   C17    1.18043   1_544     S
C17   C11    1.18043   1_566     S
C11   C20    1.75804   1_545     S
C20   C11    1.75804   1_565     S
C11   C21    0.82819   1_554     S
C21   C11    0.82819   1_556     S
C11   I28    2.10154       .     S
I28   C11    2.10154       .     S
C12   H15    0.95005       .     S
H15   C12    0.95005       .     S
C12   C17    1.75804   1_545     S
C17   C12    1.75804   1_565     S
C12   C19    1.36218   1_545     S
C19   C12    1.36218   1_565     S
C12   C21    0.56944       .     S
C21   C12    0.56944       .     S
C13   H16    0.95004       .     S
H16   C13    0.95004       .     S
C13   C21    1.41750   1_554     S
C21   C13    1.41750   1_556     S
C13   I28    1.26489       .     S
I28   C13    1.26489       .     S
C13   C30    1.46141       .     S
C30   C13    1.46141       .     S
C14   C17    0.82819   1_554     S
C17   C14    0.82819   1_556     S
C14   C20    0.56944       .     S
C20   C14    0.56944       .     S
C14   C22    1.41750   1_554     S
C22   C14    1.41750   1_556     S
C14   H25    1.28155       .     S
H25   C14    1.28155       .     S
C14   C29    1.76593   1_565     S
C29   C14    1.76593   1_545     S
C14   H33    0.94998       .     S
H33   C14    0.94998       .     S
H15   C21    1.28155       .     S
C21   H15    1.28155       .     S
H16   I28    1.60766       .     S
I28   H16    1.60766       .     S
C17   I18    2.10154       .     S
I18   C17    2.10154       .     S
C17   C20    1.38941   1_556     S
C20   C17    1.38941   1_554     S
C17   C21    1.45401   1_565     S
C21   C17    1.45401   1_545     S
C17   C22    1.26168       .     S
C22   C17    1.26168       .     S
I18   C19    1.99073       .     S
C19   I18    1.99073       .     S
I18   C22    1.26489       .     S
C22   I18    1.26489       .     S
I18   C23    0.68736       .     S
C23   I18    0.68736       .     S
I18   H26    1.60766       .     S
H26   I18    1.60766       .     S
I18   H27    0.85511       .     S
H27   I18    0.85511       .     S
C19   C21    1.76593   1_565     S
C21   C19    1.76593   1_545     S
C19   C23    1.30344       .     S
C23   C19    1.30344       .     S
C19   H24    0.95015       .     S
H24   C19    0.95015       .     S
C20   H25    0.95005       .     S
H25   C20    0.95005       .     S
C20   C29    1.36218   1_565     S
C29   C20    1.36218   1_545     S
C20   H33    0.39875       .     S
H33   C20    0.39875       .     S
C22   C23    1.46141       .     S
C23   C22    1.46141       .     S
C22   H26    0.95004       .     S
H26   C22    0.95004       .     S
C23   H27    0.94942       .     S
H27   C23    0.94942       .     S
I28   C29    1.99073       .     S
C29   I28    1.99073       .     S
I28   C30    0.68736       .     S
C30   I28    0.68736       .     S
I28   H32    0.85511       .     S
H32   I28    0.85511       .     S
C29   C30    1.30345       .     S
C30   C29    1.30345       .     S
C29   H31    0.95015       .     S
H31   C29    0.95015       .     S
C29   H33    1.31076   1_545     S
H33   C29    1.31076   1_565     S
C30   H32    0.94942       .     S
H32   C30    0.94942       .     S
S34   O35    1.46605       .     S
O35   S34    1.46605       .     S
S34   O36    1.46703       .     S
O36   S34    1.46703       .     S
S34   O37    1.45970       .     S
O37   S34    1.45970       .     S
S34   C38    1.78942       .     S
C38   S34    1.78942       .     S
C38   C39    1.37545   1_655     S
C39   C38    1.37545   1_455     S
C38   C43    1.37599       .     S
C43   C38    1.37599       .     S
C39   C40    1.38427       .     S
C40   C39    1.38427       .     S
C39   H44    0.95015       .     S
H44   C39    0.95015       .     S
C40   C41    1.39034   1_455     S
C41   C40    1.39034   1_655     S
C40   H45    0.94984       .     S
H45   C40    0.94984       .     S
C41   C42    1.38662       .     S
C42   C41    1.38662       .     S
C41   C48    1.52175   1_654     S
C48   C41    1.52175   1_456     S
C42   C43    1.39422       .     S
C43   C42    1.39422       .     S
C42   H46    0.94972       .     S
H46   C42    0.94972       .     S
C43   H47    0.95008       .     S
H47   C43    0.95008       .     S
C48   C49    1.39034   1_455     S
C49   C48    1.39034   1_655     S
C48   C57    1.38662       .     S
C57   C48    1.38662       .     S
C49   C50    1.38427       .     S
C50   C49    1.38427       .     S
C49   H61    0.94984       .     S
H61   C49    0.94984       .     S
C50   C51    1.37545   1_655     S
C51   C50    1.37545   1_455     S
C50   H60    0.95015       .     S
H60   C50    0.95015       .     S
C51   S52    1.78942       .     S
S52   C51    1.78942       .     S
C51   C56    1.37599       .     S
C56   C51    1.37599       .     S
S52   O53    1.46605       .     S
O53   S52    1.46605       .     S
S52   O54    1.46703       .     S
O54   S52    1.46703       .     S
S52   O55    1.45970       .     S
O55   S52    1.45970       .     S
C56   C57    1.39422       .     S
C57   C56    1.39422       .     S
C56   H59    0.95008       .     S
H59   C56    0.95008       .     S
C57   H58    0.94972       .     S
H58   C57    0.94972       .     S
O37   H4     2.15072       .     S
H4    O37    2.15072       .     S
O35   H5     2.01529   1_565     S
H5    O35    2.01529   1_545     S
O36   H6     2.13106       .     S
H6    O36    2.13106       .     S
O35   H7     2.08249   1_665     S
H7    O35    2.08249   1_445     S
O36   H8     2.10688       .     S
H8    O36    2.10688       .     S
O37   H9     2.41378   1_655     S
H9    O37    2.41378   1_455     S
N1    C0     1.32928       .     S
C0    N1     1.32928       .     S
N2    C0     1.33671       .     S
C0    N2     1.33671       .     S
N3    C0     1.33000       .     S
C0    N3     1.33000       .     S
H4    N1     0.88010       .     S
N1    H4     0.88010       .     S
H5    N1     0.88019       .     S
N1    H5     0.88019       .     S
H6    N2     0.87988   1_565     S
N2    H6     0.87988   1_545     S
H7    N2     0.87951       .     S
N2    H7     0.87951       .     S
H8    N3     0.87971       .     S
N3    H8     0.87971       .     S
H9    N3     0.88045       .     S
N3    H9     0.88045       .     S
C12   H10    0.39875       .     S
H10   C12    0.39875       .     S
C19   H10    1.31076   1_565     S
H10   C19    1.31076   1_545     S
C21   H10    0.94998       .     S
H10   C21    0.94998       .     S
C12   C11    1.38941   1_556     S
C11   C12    1.38941   1_554     S
C13   C11    1.26168       .     S
C11   C13    1.26168       .     S
C14   C11    1.45401   1_565     S
C11   C14    1.45401   1_545     S
C17   C11    1.18043   1_566     S
C11   C17    1.18043   1_544     S
C20   C11    1.75804   1_565     S
C11   C20    1.75804   1_545     S
C21   C11    0.82819   1_556     S
C11   C21    0.82819   1_554     S
I28   C11    2.10154       .     S
C11   I28    2.10154       .     S
H15   C12    0.95005       .     S
C12   H15    0.95005       .     S
C17   C12    1.75804   1_565     S
C12   C17    1.75804   1_545     S
C19   C12    1.36218   1_565     S
C12   C19    1.36218   1_545     S
C21   C12    0.56944       .     S
C12   C21    0.56944       .     S
H16   C13    0.95004       .     S
C13   H16    0.95004       .     S
C21   C13    1.41750   1_556     S
C13   C21    1.41750   1_554     S
I28   C13    1.26489       .     S
C13   I28    1.26489       .     S
C30   C13    1.46141       .     S
C13   C30    1.46141       .     S
C17   C14    0.82819   1_556     S
C14   C17    0.82819   1_554     S
C20   C14    0.56944       .     S
C14   C20    0.56944       .     S
C22   C14    1.41750   1_556     S
C14   C22    1.41750   1_554     S
H25   C14    1.28155       .     S
C14   H25    1.28155       .     S
C29   C14    1.76593   1_545     S
C14   C29    1.76593   1_565     S
H33   C14    0.94998       .     S
C14   H33    0.94998       .     S
C21   H15    1.28155       .     S
H15   C21    1.28155       .     S
I28   H16    1.60766       .     S
H16   I28    1.60766       .     S
I18   C17    2.10154       .     S
C17   I18    2.10154       .     S
C20   C17    1.38941   1_554     S
C17   C20    1.38941   1_556     S
C21   C17    1.45401   1_545     S
C17   C21    1.45401   1_565     S
C22   C17    1.26168       .     S
C17   C22    1.26168       .     S
C19   I18    1.99073       .     S
I18   C19    1.99073       .     S
C22   I18    1.26489       .     S
I18   C22    1.26489       .     S
C23   I18    0.68736       .     S
I18   C23    0.68736       .     S
H26   I18    1.60766       .     S
I18   H26    1.60766       .     S
H27   I18    0.85511       .     S
I18   H27    0.85511       .     S
C21   C19    1.76593   1_545     S
C19   C21    1.76593   1_565     S
C23   C19    1.30344       .     S
C19   C23    1.30344       .     S
H24   C19    0.95015       .     S
C19   H24    0.95015       .     S
H25   C20    0.95005       .     S
C20   H25    0.95005       .     S
C29   C20    1.36218   1_545     S
C20   C29    1.36218   1_565     S
H33   C20    0.39875       .     S
C20   H33    0.39875       .     S
C23   C22    1.46141       .     S
C22   C23    1.46141       .     S
H26   C22    0.95004       .     S
C22   H26    0.95004       .     S
H27   C23    0.94942       .     S
C23   H27    0.94942       .     S
C29   I28    1.99073       .     S
I28   C29    1.99073       .     S
C30   I28    0.68736       .     S
I28   C30    0.68736       .     S
H32   I28    0.85511       .     S
I28   H32    0.85511       .     S
C30   C29    1.30345       .     S
C29   C30    1.30345       .     S
H31   C29    0.95015       .     S
C29   H31    0.95015       .     S
H33   C29    1.31076   1_565     S
C29   H33    1.31076   1_545     S
H32   C30    0.94942       .     S
C30   H32    0.94942       .     S
O35   S34    1.46605       .     S
S34   O35    1.46605       .     S
O36   S34    1.46703       .     S
S34   O36    1.46703       .     S
O37   S34    1.45970       .     S
S34   O37    1.45970       .     S
C38   S34    1.78942       .     S
S34   C38    1.78942       .     S
C39   C38    1.37545   1_455     S
C38   C39    1.37545   1_655     S
C43   C38    1.37599       .     S
C38   C43    1.37599       .     S
C40   C39    1.38427       .     S
C39   C40    1.38427       .     S
H44   C39    0.95015       .     S
C39   H44    0.95015       .     S
C41   C40    1.39034   1_655     S
C40   C41    1.39034   1_455     S
H45   C40    0.94984       .     S
C40   H45    0.94984       .     S
C42   C41    1.38662       .     S
C41   C42    1.38662       .     S
C48   C41    1.52175   1_456     S
C41   C48    1.52175   1_654     S
C43   C42    1.39422       .     S
C42   C43    1.39422       .     S
H46   C42    0.94972       .     S
C42   H46    0.94972       .     S
H47   C43    0.95008       .     S
C43   H47    0.95008       .     S
C49   C48    1.39034   1_655     S
C48   C49    1.39034   1_455     S
C57   C48    1.38662       .     S
C48   C57    1.38662       .     S
C50   C49    1.38427       .     S
C49   C50    1.38427       .     S
H61   C49    0.94984       .     S
C49   H61    0.94984       .     S
C51   C50    1.37545   1_455     S
C50   C51    1.37545   1_655     S
H60   C50    0.95015       .     S
C50   H60    0.95015       .     S
S52   C51    1.78942       .     S
C51   S52    1.78942       .     S
C56   C51    1.37599       .     S
C51   C56    1.37599       .     S
O53   S52    1.46605       .     S
S52   O53    1.46605       .     S
O54   S52    1.46703       .     S
S52   O54    1.46703       .     S
O55   S52    1.45970       .     S
S52   O55    1.45970       .     S
C57   C56    1.39422       .     S
C56   C57    1.39422       .     S
H59   C56    0.95008       .     S
C56   H59    0.95008       .     S
H58   C57    0.94972       .     S
C57   H58    0.94972       .     S
