data_I
_chemical_name_common  '/data/user2/wty/HOF/MOFDiff/mofdiff/data/test/1_5'
_cell_length_a  6.09640
_cell_length_b  7.30020
_cell_length_c 14.69790
_cell_angle_alpha 101.92700
_cell_angle_beta  91.07700
_cell_angle_gamma 93.52500
_space_group_name_H-M_alt      'P 1'


loop_
_space_group_symop_operation_xyz
  'x, y, z' 

loop_
_atom_site_label
_atom_site_fract_x
_atom_site_fract_y
_atom_site_fract_z
_atom_site_type_symbol
C0      0.2595   0.9587   0.8326     C
C1      0.1256    0.978    0.919     C
C2      0.9122   0.8978   0.9166     C
C3      0.2104   0.0807   0.0042     C
H4      0.4164   0.9742   0.8503     H
H5       0.223   0.0552   0.7984     H
H6      0.2261   0.8342    0.793     H
H7      0.8496   0.8269   0.8594     H
H8      0.3557   0.1372   0.0079     H
C9      0.7896   0.9193   0.9958     C
C10     0.8744    0.022    0.081     C
C11     0.7405   0.0413   0.1674     C
H12     0.5836   0.0258   0.1497     H
H13      0.777   0.9448   0.2016     H
H14     0.7739   0.1658    0.207     H
C15     0.0878   0.1022   0.0834     C
H16     0.1504   0.1731   0.1406     H
H17     0.6443   0.8628   0.9921     H
S18     0.6781   0.2812   0.6422     S
O19     0.5659   0.4009   0.5909     O
O20     0.9168   0.2998    0.636     O
O21     0.5929   0.0856   0.6176     O
C22     0.6215   0.3604   0.7613     C
C23     0.4308   0.4449    0.787     C
C24     0.3842   0.4988   0.8802     C
C25     0.5262   0.4699   0.9499     C
C26     0.7166   0.3837   0.9224     C
C27     0.7645   0.3288   0.8291     C
H28     0.3303   0.4664   0.7408     H
H29     0.2515   0.5571   0.8968     H
H30     0.8171   0.3615   0.9685     H
H31     0.8963   0.2693   0.8121     H
C32     0.4738   0.5301   0.0501     C
C33     0.6158   0.5012   0.1198     C
C34     0.5692   0.5551    0.213     C
C35     0.3785   0.6396   0.2387     C
S36     0.3219   0.7188   0.3578     S
O37     0.4341   0.5991   0.4091     O
O38     0.0832   0.7002    0.364     O
O39     0.4071   0.9144   0.3824     O
C40     0.2355   0.6712   0.1709     C
C41     0.2834   0.6163   0.0776     C
H42     0.1829   0.6385   0.0315     H
H43     0.1037   0.7307   0.1879     H
H44     0.6697   0.5336   0.2592     H
H45     0.7485   0.4429   0.1032     H
C46     0.0459    0.779   0.5963     C
N47     0.8333   0.7618   0.6118     N
N48     0.1642   0.6295   0.5905     N
N49     0.1385   0.9433    0.589     N
H50     0.7538   0.8599   0.6173     H
H51     0.7714   0.6522   0.6167     H
H52     0.3065   0.6395   0.5817     H
H53     0.1001   0.5208   0.5955     H
H54     0.0589   0.0413   0.5945     H
H55     0.2799   0.9549   0.5787     H
loop_
_geom_bond_atom_site_label_1
_geom_bond_atom_site_label_2
_geom_bond_distance
_geom_bond_site_symmetry_2
_ccdc_geom_bond_type
H50   O21    1.96796   1_565     S
O21   H50    1.96796   1_545     S
H51   O19    2.11916       .     S
O19   H51    2.11916       .     S
H52   O19    2.44563       .     S
O19   H52    2.44563       .     S
H53   O20    2.09910   1_455     S
O20   H53    2.09910   1_655     S
H54   O20    2.10447   1_455     S
O20   H54    2.10447   1_655     S
H55   O21    2.09476   1_565     S
O21   H55    2.09476   1_545     S
C0    C1     1.50931       .     S
C1    C0     1.50931       .     S
C0    H4     0.98010       .     S
H4    C0     0.98010       .     S
C0    H5     0.97975   1_565     S
H5    C0     0.97975   1_545     S
C0    H6     0.98001       .     S
H6    C0     0.98001       .     S
C1    C2     1.39019   1_455     S
C2    C1     1.39019   1_655     S
C1    C3     1.39193   1_566     S
C3    C1     1.39193   1_544     S
C2    H7     0.95086       .     S
H7    C2     0.95086       .     S
C2    C9     1.38201       .     S
C9    C2     1.38201       .     S
C3    H8     0.94959       .     S
H8    C3     0.94959       .     S
C3    C15    1.38201       .     S
C15   C3     1.38201       .     S
C9    C10    1.39193   1_566     S
C10   C9     1.39193   1_544     S
C9    H17    0.94959       .     S
H17   C9     0.94959       .     S
C10   C11    1.50931       .     S
C11   C10    1.50931       .     S
C10   C15    1.39019   1_655     S
C15   C10    1.39019   1_455     S
C11   H12    0.98010       .     S
H12   C11    0.98010       .     S
C11   H13    0.97975   1_545     S
H13   C11    0.97975   1_565     S
C11   H14    0.98001       .     S
H14   C11    0.98001       .     S
C15   H16    0.95086       .     S
H16   C15    0.95086       .     S
S18   O19    1.45823       .     S
O19   S18    1.45823       .     S
S18   O20    1.45951       .     S
O20   S18    1.45951       .     S
S18   O21    1.45870       .     S
O21   S18    1.45870       .     S
S18   C22    1.77386       .     S
C22   S18    1.77386       .     S
C22   C23    1.37230       .     S
C23   C22    1.37230       .     S
C22   C27    1.37600       .     S
C27   C22    1.37600       .     S
C23   C24    1.38477       .     S
C24   C23    1.38477       .     S
C23   H28    0.94940       .     S
H28   C23    0.94940       .     S
C24   C25    1.38631       .     S
C25   C24    1.38631       .     S
C24   H29    0.94972       .     S
H29   C24    0.94972       .     S
C25   C26    1.38168       .     S
C26   C25    1.38168       .     S
C25   C32    1.49384   1_556     S
C32   C25    1.49384   1_554     S
C26   C27    1.38877       .     S
C27   C26    1.38877       .     S
C26   H30    0.95013       .     S
H30   C26    0.95013       .     S
C27   H31    0.94991       .     S
H31   C27    0.94991       .     S
C32   C33    1.38631       .     S
C33   C32    1.38631       .     S
C32   C41    1.38168       .     S
C41   C32    1.38168       .     S
C33   C34    1.38477       .     S
C34   C33    1.38477       .     S
C33   H45    0.94972       .     S
H45   C33    0.94972       .     S
C34   C35    1.37229       .     S
C35   C34    1.37229       .     S
C34   H44    0.94940       .     S
H44   C34    0.94940       .     S
C35   S36    1.77386       .     S
S36   C35    1.77386       .     S
C35   C40    1.37600       .     S
C40   C35    1.37600       .     S
S36   O37    1.45823       .     S
O37   S36    1.45823       .     S
S36   O38    1.45951       .     S
O38   S36    1.45951       .     S
S36   O39    1.45870       .     S
O39   S36    1.45870       .     S
C40   C41    1.38877       .     S
C41   C40    1.38877       .     S
C40   H43    0.94991       .     S
H43   C40    0.94991       .     S
C41   H42    0.95013       .     S
H42   C41    0.95013       .     S
C46   N47    1.32304   1_455     S
N47   C46    1.32304   1_655     S
C46   N48    1.33385       .     S
N48   C46    1.33385       .     S
C46   N49    1.31948       .     S
N49   C46    1.31948       .     S
N47   H50    0.88007       .     S
H50   N47    0.88007       .     S
N47   H51    0.88061       .     S
H51   N47    0.88061       .     S
N48   H52    0.88033       .     S
H52   N48    0.88033       .     S
N48   H53    0.88026       .     S
H53   N48    0.88026       .     S
N49   H54    0.87984   1_565     S
H54   N49    0.87984   1_545     S
N49   H55    0.88001       .     S
H55   N49    0.88001       .     S
O21   H50    1.96796   1_545     S
H50   O21    1.96796   1_565     S
O19   H51    2.11916       .     S
H51   O19    2.11916       .     S
O19   H52    2.44563       .     S
H52   O19    2.44563       .     S
O20   H53    2.09910   1_655     S
H53   O20    2.09910   1_455     S
O20   H54    2.10447   1_655     S
H54   O20    2.10447   1_455     S
O21   H55    2.09476   1_545     S
H55   O21    2.09476   1_565     S
C1    C0     1.50931       .     S
C0    C1     1.50931       .     S
H4    C0     0.98010       .     S
C0    H4     0.98010       .     S
H5    C0     0.97975   1_545     S
C0    H5     0.97975   1_565     S
H6    C0     0.98001       .     S
C0    H6     0.98001       .     S
C2    C1     1.39019   1_655     S
C1    C2     1.39019   1_455     S
C3    C1     1.39193   1_544     S
C1    C3     1.39193   1_566     S
H7    C2     0.95086       .     S
C2    H7     0.95086       .     S
C9    C2     1.38201       .     S
C2    C9     1.38201       .     S
H8    C3     0.94959       .     S
C3    H8     0.94959       .     S
C15   C3     1.38201       .     S
C3    C15    1.38201       .     S
C10   C9     1.39193   1_544     S
C9    C10    1.39193   1_566     S
H17   C9     0.94959       .     S
C9    H17    0.94959       .     S
C11   C10    1.50931       .     S
C10   C11    1.50931       .     S
C15   C10    1.39019   1_455     S
C10   C15    1.39019   1_655     S
H12   C11    0.98010       .     S
C11   H12    0.98010       .     S
H13   C11    0.97975   1_565     S
C11   H13    0.97975   1_545     S
H14   C11    0.98001       .     S
C11   H14    0.98001       .     S
H16   C15    0.95086       .     S
C15   H16    0.95086       .     S
O19   S18    1.45823       .     S
S18   O19    1.45823       .     S
O20   S18    1.45951       .     S
S18   O20    1.45951       .     S
O21   S18    1.45870       .     S
S18   O21    1.45870       .     S
C22   S18    1.77386       .     S
S18   C22    1.77386       .     S
C23   C22    1.37230       .     S
C22   C23    1.37230       .     S
C27   C22    1.37600       .     S
C22   C27    1.37600       .     S
C24   C23    1.38477       .     S
C23   C24    1.38477       .     S
H28   C23    0.94940       .     S
C23   H28    0.94940       .     S
C25   C24    1.38631       .     S
C24   C25    1.38631       .     S
H29   C24    0.94972       .     S
C24   H29    0.94972       .     S
C26   C25    1.38168       .     S
C25   C26    1.38168       .     S
C32   C25    1.49384   1_554     S
C25   C32    1.49384   1_556     S
C27   C26    1.38877       .     S
C26   C27    1.38877       .     S
H30   C26    0.95013       .     S
C26   H30    0.95013       .     S
H31   C27    0.94991       .     S
C27   H31    0.94991       .     S
C33   C32    1.38631       .     S
C32   C33    1.38631       .     S
C41   C32    1.38168       .     S
C32   C41    1.38168       .     S
C34   C33    1.38477       .     S
C33   C34    1.38477       .     S
H45   C33    0.94972       .     S
C33   H45    0.94972       .     S
C35   C34    1.37229       .     S
C34   C35    1.37229       .     S
H44   C34    0.94940       .     S
C34   H44    0.94940       .     S
S36   C35    1.77386       .     S
C35   S36    1.77386       .     S
C40   C35    1.37600       .     S
C35   C40    1.37600       .     S
O37   S36    1.45823       .     S
S36   O37    1.45823       .     S
O38   S36    1.45951       .     S
S36   O38    1.45951       .     S
O39   S36    1.45870       .     S
S36   O39    1.45870       .     S
C41   C40    1.38877       .     S
C40   C41    1.38877       .     S
H43   C40    0.94991       .     S
C40   H43    0.94991       .     S
H42   C41    0.95013       .     S
C41   H42    0.95013       .     S
N47   C46    1.32304   1_655     S
C46   N47    1.32304   1_455     S
N48   C46    1.33385       .     S
C46   N48    1.33385       .     S
N49   C46    1.31948       .     S
C46   N49    1.31948       .     S
H50   N47    0.88007       .     S
N47   H50    0.88007       .     S
H51   N47    0.88061       .     S
N47   H51    0.88061       .     S
H52   N48    0.88033       .     S
N48   H52    0.88033       .     S
H53   N48    0.88026       .     S
N48   H53    0.88026       .     S
H54   N49    0.87984   1_545     S
N49   H54    0.87984   1_565     S
H55   N49    0.88001       .     S
N49   H55    0.88001       .     S
