data_I
_chemical_name_common  '/data/user2/wty/HOF/MOFDiff/mofdiff/data/test/1_6'
_cell_length_a  6.12180
_cell_length_b  7.38030
_cell_length_c 13.87500
_cell_angle_alpha 95.00700
_cell_angle_beta  92.14800
_cell_angle_gamma 94.95300
_space_group_name_H-M_alt      'P 1'


loop_
_space_group_symop_operation_xyz
  'x, y, z' 

loop_
_atom_site_label
_atom_site_fract_x
_atom_site_fract_y
_atom_site_fract_z
_atom_site_type_symbol
C0      0.4657   0.7464   0.3996     C
N1      0.6818    0.771   0.3885     N
N2      0.3467   0.8885   0.4029     N
N3      0.3718   0.5787   0.4038     N
H4      0.7449   0.8813   0.3834     H
H5      0.7611   0.6769   0.3863     H
H6      0.2036    0.872   0.4079     H
H7      0.4108   0.9991      0.4     H
H8      0.2289   0.5607   0.4089     H
H9      0.4524   0.4855   0.4016     H
S10     0.8285   0.2562   0.3576     S
O11     0.9374    0.144   0.4223     O
O12      0.917   0.4472   0.3688     O
O13     0.5889   0.2359   0.3633     O
C14     0.8846   0.1716   0.2383     C
C15     0.0916   0.2103   0.2025     C
C16     0.1341   0.1433   0.1107     C
C17      0.976   0.0348   0.0501     C
C18     0.7709   0.9966   0.0889     C
C19     0.7252   0.0633   0.1806     C
H20     0.2026   0.2829   0.2417     H
H21     0.2756   0.1711   0.0871     H
H22     0.6601   0.9223   0.0505     H
H23     0.5842   0.0354   0.2047     H
C24      0.024   0.9652   0.9499     C
C25     0.8659   0.8567   0.8893     C
C26     0.9084   0.7897   0.7975     C
C27     0.1154   0.8284   0.7617     C
S28     0.1715   0.7438   0.6424     S
O29     0.0626    0.856   0.5777     O
O30      0.083   0.5528   0.6312     O
O31     0.4111   0.7641   0.6367     O
C32     0.2748   0.9367   0.8194     C
C33     0.2291   0.0034   0.9111     C
H34     0.3399   0.0777   0.9495     H
H35     0.4158   0.9646   0.7953     H
H36     0.7974   0.7171   0.7583     H
H37     0.7244   0.8289   0.9129     H
loop_
_geom_bond_atom_site_label_1
_geom_bond_atom_site_label_2
_geom_bond_distance
_geom_bond_site_symmetry_2
_ccdc_geom_bond_type
H4    O11    2.19412   1_565     S
O11   H4     2.19412   1_545     S
H5    O12    2.01708       .     S
O12   H5     2.01708       .     S
H6    O29    2.54814       .     S
O29   H6     2.54814       .     S
H7    O13    2.09052   1_565     S
O13   H7     2.09052   1_545     S
H8    O12    2.05423   1_455     S
O12   H8     2.05422   1_655     S
H9    O13    2.12186       .     S
O13   H9     2.12186       .     S
C0    N1     1.33622       .     S
N1    C0     1.33622       .     S
C0    N2     1.32616       .     S
N2    C0     1.32616       .     S
C0    N3     1.32587       .     S
N3    C0     1.32587       .     S
N1    H4     0.88017       .     S
H4    N1     0.88017       .     S
N1    H5     0.88008       .     S
H5    N1     0.88008       .     S
N2    H6     0.88016       .     S
H6    N2     0.88016       .     S
N2    H7     0.87948       .     S
H7    N2     0.87948       .     S
N3    H8     0.87986       .     S
H8    N3     0.87986       .     S
N3    H9     0.87954       .     S
H9    N3     0.87954       .     S
S10   O11    1.45473       .     S
O11   S10    1.45473       .     S
S10   O12    1.45888       .     S
O12   S10    1.45888       .     S
S10   O13    1.46730       .     S
O13   S10    1.46730       .     S
S10   C14    1.77398       .     S
C14   S10    1.77398       .     S
C14   C15    1.39413   1_655     S
C15   C14    1.39413   1_455     S
C14   C19    1.38819       .     S
C19   C14    1.38819       .     S
C15   C16    1.36810       .     S
C16   C15    1.36810       .     S
C15   H20    0.95038       .     S
H20   C15    0.95038       .     S
C16   C17    1.40449   1_455     S
C17   C16    1.40449   1_655     S
C16   H21    0.94973       .     S
H21   C16    0.94973       .     S
C17   C18    1.40065   1_545     S
C18   C17    1.40065   1_565     S
C17   C24    1.48832   1_644     S
C24   C17    1.48832   1_466     S
C18   C19    1.37134   1_565     S
C19   C18    1.37134   1_545     S
C18   H22    0.94991       .     S
H22   C18    0.94991       .     S
C19   H23    0.94987       .     S
H23   C19    0.94987       .     S
C24   C25    1.40449   1_455     S
C25   C24    1.40449   1_655     S
C24   C33    1.40065   1_565     S
C33   C24    1.40065   1_545     S
C25   C26    1.36810       .     S
C26   C25    1.36810       .     S
C25   H37    0.94973       .     S
H37   C25    0.94973       .     S
C26   C27    1.39413   1_655     S
C27   C26    1.39413   1_455     S
C26   H36    0.95038       .     S
H36   C26    0.95038       .     S
C27   S28    1.77398       .     S
S28   C27    1.77398       .     S
C27   C32    1.38819       .     S
C32   C27    1.38819       .     S
S28   O29    1.45473       .     S
O29   S28    1.45473       .     S
S28   O30    1.45888       .     S
O30   S28    1.45888       .     S
S28   O31    1.46730       .     S
O31   S28    1.46730       .     S
C32   C33    1.37134   1_565     S
C33   C32    1.37134   1_545     S
C32   H35    0.94987       .     S
H35   C32    0.94987       .     S
C33   H34    0.94992       .     S
H34   C33    0.94992       .     S
O11   H4     2.19412   1_545     S
H4    O11    2.19412   1_565     S
O12   H5     2.01708       .     S
H5    O12    2.01708       .     S
O29   H6     2.54814       .     S
H6    O29    2.54814       .     S
O13   H7     2.09052   1_545     S
H7    O13    2.09052   1_565     S
O12   H8     2.05422   1_655     S
H8    O12    2.05423   1_455     S
O13   H9     2.12186       .     S
H9    O13    2.12186       .     S
N1    C0     1.33622       .     S
C0    N1     1.33622       .     S
N2    C0     1.32616       .     S
C0    N2     1.32616       .     S
N3    C0     1.32587       .     S
C0    N3     1.32587       .     S
H4    N1     0.88017       .     S
N1    H4     0.88017       .     S
H5    N1     0.88008       .     S
N1    H5     0.88008       .     S
H6    N2     0.88016       .     S
N2    H6     0.88016       .     S
H7    N2     0.87948       .     S
N2    H7     0.87948       .     S
H8    N3     0.87986       .     S
N3    H8     0.87986       .     S
H9    N3     0.87954       .     S
N3    H9     0.87954       .     S
O11   S10    1.45473       .     S
S10   O11    1.45473       .     S
O12   S10    1.45888       .     S
S10   O12    1.45888       .     S
O13   S10    1.46730       .     S
S10   O13    1.46730       .     S
C14   S10    1.77398       .     S
S10   C14    1.77398       .     S
C15   C14    1.39413   1_455     S
C14   C15    1.39413   1_655     S
C19   C14    1.38819       .     S
C14   C19    1.38819       .     S
C16   C15    1.36810       .     S
C15   C16    1.36810       .     S
H20   C15    0.95038       .     S
C15   H20    0.95038       .     S
C17   C16    1.40449   1_655     S
C16   C17    1.40449   1_455     S
H21   C16    0.94973       .     S
C16   H21    0.94973       .     S
C18   C17    1.40065   1_565     S
C17   C18    1.40065   1_545     S
C24   C17    1.48832   1_466     S
C17   C24    1.48832   1_644     S
C19   C18    1.37134   1_545     S
C18   C19    1.37134   1_565     S
H22   C18    0.94991       .     S
C18   H22    0.94991       .     S
H23   C19    0.94987       .     S
C19   H23    0.94987       .     S
C25   C24    1.40449   1_655     S
C24   C25    1.40449   1_455     S
C33   C24    1.40065   1_545     S
C24   C33    1.40065   1_565     S
C26   C25    1.36810       .     S
C25   C26    1.36810       .     S
H37   C25    0.94973       .     S
C25   H37    0.94973       .     S
C27   C26    1.39413   1_455     S
C26   C27    1.39413   1_655     S
H36   C26    0.95038       .     S
C26   H36    0.95038       .     S
S28   C27    1.77398       .     S
C27   S28    1.77398       .     S
C32   C27    1.38819       .     S
C27   C32    1.38819       .     S
O29   S28    1.45473       .     S
S28   O29    1.45473       .     S
O30   S28    1.45888       .     S
S28   O30    1.45888       .     S
O31   S28    1.46730       .     S
S28   O31    1.46730       .     S
C33   C32    1.37134   1_545     S
C32   C33    1.37134   1_565     S
H35   C32    0.94987       .     S
C32   H35    0.94987       .     S
H34   C33    0.94992       .     S
C33   H34    0.94992       .     S
