data_I
_chemical_name_common  '/data/user2/wty/HOF/MOFDiff/mofdiff/data/test/1_7'
_cell_length_a  6.13350
_cell_length_b  7.35900
_cell_length_c 13.58670
_cell_angle_alpha 93.40500
_cell_angle_beta  93.75100
_cell_angle_gamma 95.48800
_space_group_name_H-M_alt      'P 1'


loop_
_space_group_symop_operation_xyz
  'x, y, z' 

loop_
_atom_site_label
_atom_site_fract_x
_atom_site_fract_y
_atom_site_fract_z
_atom_site_type_symbol
C0      0.7961   0.5539   0.9711     C
C1       0.882   0.5841   0.0682     C
Cl2     0.7335   0.6927   0.1546    Cl
C3      0.9142   0.4688   0.9028     C
H4      0.6566   0.5919    0.952     H
H5      0.8565   0.4463   0.8361     H
C6      0.0858   0.5312   0.0972     C
C7      0.2039   0.4461   0.0289     C
C8       0.118   0.4159   0.9318     C
Cl9     0.2665   0.3073   0.8454    Cl
H10     0.3434   0.4081    0.048     H
H11     0.1435   0.5537   0.1639     H
S12     0.3238   0.2634   0.3559     S
C13     0.3803   0.1781   0.2368     C
C14     0.5869   0.2183   0.2027     C
C15     0.6321   0.1493   0.1108     C
C16     0.4749    0.037   0.0497     C
C17     0.2691   0.9979   0.0863     C
C18     0.2216   0.0669   0.1781     C
O19     0.4344   0.1529    0.425     O
O20     0.0856   0.2415   0.3593     O
O21     0.4116   0.4551   0.3653     O
H22     0.6968   0.2933   0.2429     H
H23     0.7736   0.1786   0.0881     H
H24     0.1591   0.9217   0.0468     H
H25     0.0802   0.0383   0.2011     H
C26     0.5251    0.963   0.9503     C
C27     0.3679   0.8507   0.8892     C
C28     0.4131   0.7817   0.7973     C
C29     0.6197   0.8219   0.7632     C
S30     0.6762   0.7366   0.6441     S
O31     0.5656   0.8471    0.575     O
O32     0.9144   0.7585   0.6407     O
O33     0.5884   0.5449   0.6347     O
C34     0.7784   0.9331   0.8219     C
C35     0.7309   0.0021   0.9137     C
H36     0.8409   0.0783   0.9532     H
H37     0.9198   0.9617   0.7989     H
H38     0.3032   0.7067   0.7571     H
H39     0.2264   0.8214   0.9119     H
C40      0.963    0.749   0.3983     C
N41     0.1767   0.7757   0.3885     N
N42      0.869   0.5809   0.4037     N
N43     0.8436   0.8909   0.4007     N
H44     0.2554   0.6819   0.3857     H
H45     0.2401   0.8873   0.3849     H
H46     0.9484   0.4875   0.4007     H
H47     0.7269   0.5623   0.4102     H
H48      0.701   0.8732   0.4059     H
H49     0.9073   0.0024   0.3971     H
loop_
_geom_bond_atom_site_label_1
_geom_bond_atom_site_label_2
_geom_bond_distance
_geom_bond_site_symmetry_2
_ccdc_geom_bond_type
H44   O21    2.01642       .     S
O21   H44    2.01642       .     S
H45   O19    2.20915   1_565     S
O19   H45    2.20915   1_545     S
H46   O20    2.12935   1_655     S
O20   H46    2.12935   1_455     S
H47   O21    2.05696       .     S
O21   H47    2.05696       .     S
H48   O31    2.50533       .     S
O31   H48    2.50533       .     S
H49   O20    2.09009   1_655     S
O20   H49    2.09009   1_455     S
C0    C1     1.38538   1_556     S
C1    C0     1.38538   1_554     S
C0    C3     1.37248       .     S
C3    C0     1.37248       .     S
C0    H4     0.95025       .     S
H4    C0     0.95025       .     S
C1    Cl2    1.73609       .     S
Cl2   C1     1.73609       .     S
C1    C6     1.38426   1_655     S
C6    C1     1.38426   1_455     S
C3    H5     0.95022       .     S
H5    C3     0.95022       .     S
C3    C8     1.38426   1_655     S
C8    C3     1.38426   1_455     S
C6    C7     1.37248       .     S
C7    C6     1.37248       .     S
C6    H11    0.95022       .     S
H11   C6     0.95022       .     S
C7    C8     1.38538   1_554     S
C8    C7     1.38538   1_556     S
C7    H10    0.95025       .     S
H10   C7     0.95025       .     S
C8    Cl9    1.73609       .     S
Cl9   C8     1.73609       .     S
S12   C13    1.76832       .     S
C13   S12    1.76832       .     S
S12   O19    1.45455       .     S
O19   S12    1.45455       .     S
S12   O20    1.45853       .     S
O20   S12    1.45853       .     S
S12   O21    1.45627       .     S
O21   S12    1.45627       .     S
C13   C14    1.38900       .     S
C14   C13    1.38900       .     S
C13   C18    1.38627       .     S
C18   C13    1.38627       .     S
C14   C15    1.37501       .     S
C15   C14    1.37501       .     S
C14   H22    0.94983       .     S
H22   C14    0.94983       .     S
C15   C16    1.40112       .     S
C16   C15    1.40112       .     S
C15   H23    0.94972       .     S
H23   C15    0.94972       .     S
C16   C17    1.39752   1_545     S
C17   C16    1.39752   1_565     S
C16   C26    1.48808   1_544     S
C26   C16    1.48808   1_566     S
C17   C18    1.37803   1_565     S
C18   C17    1.37803   1_545     S
C17   H24    0.94983       .     S
H24   C17    0.94983       .     S
C18   H25    0.94999       .     S
H25   C18    0.94999       .     S
C26   C27    1.40112       .     S
C27   C26    1.40112       .     S
C26   C35    1.39752   1_565     S
C35   C26    1.39752   1_545     S
C27   C28    1.37501       .     S
C28   C27    1.37501       .     S
C27   H39    0.94972       .     S
H39   C27    0.94972       .     S
C28   C29    1.38900       .     S
C29   C28    1.38900       .     S
C28   H38    0.94983       .     S
H38   C28    0.94983       .     S
C29   S30    1.76831       .     S
S30   C29    1.76831       .     S
C29   C34    1.38627       .     S
C34   C29    1.38627       .     S
S30   O31    1.45455       .     S
O31   S30    1.45455       .     S
S30   O32    1.45853       .     S
O32   S30    1.45853       .     S
S30   O33    1.45627       .     S
O33   S30    1.45627       .     S
C34   C35    1.37803   1_565     S
C35   C34    1.37803   1_545     S
C34   H37    0.94999       .     S
H37   C34    0.94999       .     S
C35   H36    0.94983       .     S
H36   C35    0.94983       .     S
C40   N41    1.32326   1_655     S
N41   C40    1.32326   1_455     S
C40   N42    1.32211       .     S
N42   C40    1.32211       .     S
C40   N43    1.33161       .     S
N43   C40    1.33161       .     S
N41   H44    0.87974       .     S
H44   N41    0.87974       .     S
N41   H45    0.87992       .     S
H45   N41    0.87992       .     S
N42   H46    0.88008       .     S
H46   N42    0.88008       .     S
N42   H47    0.88026       .     S
H47   N42    0.88026       .     S
N43   H48    0.87996       .     S
H48   N43    0.87996       .     S
N43   H49    0.87992   1_565     S
H49   N43    0.87992   1_545     S
O21   H44    2.01642       .     S
H44   O21    2.01642       .     S
O19   H45    2.20915   1_545     S
H45   O19    2.20915   1_565     S
O20   H46    2.12935   1_455     S
H46   O20    2.12935   1_655     S
O21   H47    2.05696       .     S
H47   O21    2.05696       .     S
O31   H48    2.50533       .     S
H48   O31    2.50533       .     S
O20   H49    2.09009   1_455     S
H49   O20    2.09009   1_655     S
C1    C0     1.38538   1_554     S
C0    C1     1.38538   1_556     S
C3    C0     1.37248       .     S
C0    C3     1.37248       .     S
H4    C0     0.95025       .     S
C0    H4     0.95025       .     S
Cl2   C1     1.73609       .     S
C1    Cl2    1.73609       .     S
C6    C1     1.38426   1_455     S
C1    C6     1.38426   1_655     S
H5    C3     0.95022       .     S
C3    H5     0.95022       .     S
C8    C3     1.38426   1_455     S
C3    C8     1.38426   1_655     S
C7    C6     1.37248       .     S
C6    C7     1.37248       .     S
H11   C6     0.95022       .     S
C6    H11    0.95022       .     S
C8    C7     1.38538   1_556     S
C7    C8     1.38538   1_554     S
H10   C7     0.95025       .     S
C7    H10    0.95025       .     S
Cl9   C8     1.73609       .     S
C8    Cl9    1.73609       .     S
C13   S12    1.76832       .     S
S12   C13    1.76832       .     S
O19   S12    1.45455       .     S
S12   O19    1.45455       .     S
O20   S12    1.45853       .     S
S12   O20    1.45853       .     S
O21   S12    1.45627       .     S
S12   O21    1.45627       .     S
C14   C13    1.38900       .     S
C13   C14    1.38900       .     S
C18   C13    1.38627       .     S
C13   C18    1.38627       .     S
C15   C14    1.37501       .     S
C14   C15    1.37501       .     S
H22   C14    0.94983       .     S
C14   H22    0.94983       .     S
C16   C15    1.40112       .     S
C15   C16    1.40112       .     S
H23   C15    0.94972       .     S
C15   H23    0.94972       .     S
C17   C16    1.39752   1_565     S
C16   C17    1.39752   1_545     S
C26   C16    1.48808   1_566     S
C16   C26    1.48808   1_544     S
C18   C17    1.37803   1_545     S
C17   C18    1.37803   1_565     S
H24   C17    0.94983       .     S
C17   H24    0.94983       .     S
H25   C18    0.94999       .     S
C18   H25    0.94999       .     S
C27   C26    1.40112       .     S
C26   C27    1.40112       .     S
C35   C26    1.39752   1_545     S
C26   C35    1.39752   1_565     S
C28   C27    1.37501       .     S
C27   C28    1.37501       .     S
H39   C27    0.94972       .     S
C27   H39    0.94972       .     S
C29   C28    1.38900       .     S
C28   C29    1.38900       .     S
H38   C28    0.94983       .     S
C28   H38    0.94983       .     S
S30   C29    1.76831       .     S
C29   S30    1.76831       .     S
C34   C29    1.38627       .     S
C29   C34    1.38627       .     S
O31   S30    1.45455       .     S
S30   O31    1.45455       .     S
O32   S30    1.45853       .     S
S30   O32    1.45853       .     S
O33   S30    1.45627       .     S
S30   O33    1.45627       .     S
C35   C34    1.37803   1_545     S
C34   C35    1.37803   1_565     S
H37   C34    0.94999       .     S
C34   H37    0.94999       .     S
H36   C35    0.94983       .     S
C35   H36    0.94983       .     S
N41   C40    1.32326   1_455     S
C40   N41    1.32326   1_655     S
N42   C40    1.32211       .     S
C40   N42    1.32211       .     S
N43   C40    1.33161       .     S
C40   N43    1.33161       .     S
H44   N41    0.87974       .     S
N41   H44    0.87974       .     S
H45   N41    0.87992       .     S
N41   H45    0.87992       .     S
H46   N42    0.88008       .     S
N42   H46    0.88008       .     S
H47   N42    0.88026       .     S
N42   H47    0.88026       .     S
H48   N43    0.87996       .     S
N43   H48    0.87996       .     S
H49   N43    0.87992   1_545     S
N43   H49    0.87992   1_565     S
