data_I
_chemical_name_common  '/data/user2/wty/HOF/MOFDiff/mofdiff/data/test/1_8'
_cell_length_a  6.11500
_cell_length_b  7.34740
_cell_length_c 14.37700
_cell_angle_alpha 98.62000
_cell_angle_beta  90.19300
_cell_angle_gamma 94.61100
_space_group_name_H-M_alt      'P 1'


loop_
_space_group_symop_operation_xyz
  'x, y, z' 

loop_
_atom_site_label
_atom_site_fract_x
_atom_site_fract_y
_atom_site_fract_z
_atom_site_type_symbol
C0      0.4632   0.7346    0.402     C
N1      0.6768   0.7575   0.3883     N
N2      0.3453   0.8803   0.4076     N
N3      0.3698   0.5679   0.4074     N
H4      0.7564    0.662   0.3829     H
H5      0.7393   0.8684   0.3847     H
H6      0.2025   0.8667    0.415     H
H7      0.4102   0.9902   0.4038     H
H8      0.4497   0.4726   0.4019     H
H9      0.2277   0.5523   0.4165     H
S10     0.8303   0.2399   0.3584     S
O11     0.9409   0.1252    0.415     O
O12     0.9173   0.4335   0.3752     O
O13     0.5916   0.2197   0.3668     O
C14     0.8867   0.1575   0.2392     C
C15     0.0906   0.1957   0.2031     C
C16     0.1335   0.1327   0.1109     C
C17     0.9768   0.0315   0.0501     C
C18     0.7746   0.9932   0.0887     C
C19     0.7279   0.0555   0.1809     C
H20      0.202    0.266   0.2423     H
H21     0.2761   0.1595   0.0878     H
H22     0.6636   0.9211     0.05     H
H23     0.5859   0.0282   0.2044     H
C24     0.0232   0.9685   0.9499     C
C25     0.8665   0.8673   0.8891     C
C26     0.9094   0.8043   0.7969     C
C27     0.1133   0.8425   0.7608     C
S28     0.1697   0.7601   0.6416     S
O29     0.0591   0.8748    0.585     O
O30     0.0827   0.5665   0.6248     O
O31     0.4084   0.7803   0.6332     O
C32     0.2721   0.9445   0.8191     C
C33     0.2254   0.0068   0.9113     C
H34     0.3364   0.0789     0.95     H
H35     0.4141   0.9718   0.7956     H
H36      0.798    0.734   0.7577     H
H37     0.7239   0.8405   0.9122     H
C38     0.7284   0.4248   0.0008     C
C39     0.6678   0.4449   0.0351     C
H40     0.8047      0.4   0.0475     H
C41     0.6052   0.5006   0.0741     C
C42     0.5449   0.5206   0.1083     C
H43     0.6569    0.508    0.137     H
H44     0.5968   0.5279   0.1712     H
C45     0.5941   0.4337   0.9436     C
C46      0.655   0.4135   0.9093     C
C47     0.8001   0.3276   0.8312     C
H48     0.7293   0.3279     0.77     H
H49     0.9427   0.3994   0.8339     H
H50     0.8213   0.2002   0.8396     H
Br51    0.7646   0.3284   0.8416    Br
C52     0.3948   0.4994   0.9259     C
C53     0.4551   0.4794   0.8917     C
H54     0.3431    0.492    0.863     H
C55     0.2716   0.5752   0.9992     C
C56     0.3322   0.5551   0.9649     C
H57     0.1953      0.6   0.9525     H
H58     0.4032   0.4721   0.8288     H
H59     0.1347   0.6201   0.9866     H
C60     0.4059   0.5663   0.0564     C
C61      0.345   0.5865   0.0907     C
C62     0.1999   0.6724   0.1688     C
H63     0.2707   0.6721     0.23     H
H64     0.0573   0.6006   0.1661     H
H65     0.1787   0.7998   0.1604     H
Br66    0.2354   0.6716   0.1584    Br
H67     0.8653   0.3799   0.0134     H
loop_
_geom_bond_atom_site_label_1
_geom_bond_atom_site_label_2
_geom_bond_distance
_geom_bond_site_symmetry_2
_ccdc_geom_bond_type
H4    O12    2.00239       .     S
O12   H4     2.00239       .     S
H5    O11    2.15537   1_565     S
O11   H5     2.15537   1_545     S
H6    O11    2.57970   1_465     S
O11   H6     2.57970   1_645     S
H6    O29    2.59331       .     S
O29   H6     2.59331       .     S
H7    O13    2.08060   1_565     S
O13   H7     2.08061   1_545     S
H8    O13    2.10747       .     S
O13   H8     2.10747       .     S
H9    O12    2.07072   1_455     S
O12   H9     2.07072   1_655     S
C0    N1     1.32269       .     S
N1    C0     1.32269       .     S
C0    N2     1.33076       .     S
N2    C0     1.33076       .     S
C0    N3     1.32239       .     S
N3    C0     1.32239       .     S
N1    H4     0.87986       .     S
H4    N1     0.87986       .     S
N1    H5     0.88056       .     S
H5    N1     0.88056       .     S
N2    H6     0.87955       .     S
H6    N2     0.87955       .     S
N2    H7     0.87997       .     S
H7    N2     0.87997       .     S
N3    H8     0.87973       .     S
H8    N3     0.87973       .     S
N3    H9     0.88009       .     S
H9    N3     0.88009       .     S
S10   O11    1.45715       .     S
O11   S10    1.45715       .     S
S10   O12    1.46261       .     S
O12   S10    1.46261       .     S
S10   O13    1.46250       .     S
O13   S10    1.46250       .     S
S10   C14    1.77452       .     S
C14   S10    1.77452       .     S
C14   C15    1.37642   1_655     S
C15   C14    1.37642   1_455     S
C14   C19    1.37709       .     S
C19   C14    1.37709       .     S
C15   C16    1.37045       .     S
C16   C15    1.37045       .     S
C15   H20    0.94976       .     S
H20   C15    0.94976       .     S
C16   C17    1.38568   1_455     S
C17   C16    1.38568   1_655     S
C16   H21    0.95047       .     S
H21   C16    0.95047       .     S
C17   C18    1.38256   1_545     S
C18   C17    1.38256   1_565     S
C17   C24    1.48122   1_644     S
C24   C17    1.48122   1_466     S
C18   C19    1.37473   1_565     S
C19   C18    1.37473   1_545     S
C18   H22    0.94985       .     S
H22   C18    0.94985       .     S
C19   H23    0.95009       .     S
H23   C19    0.95009       .     S
C24   C25    1.38568   1_455     S
C25   C24    1.38568   1_655     S
C24   C33    1.38256   1_565     S
C33   C24    1.38256   1_545     S
C25   C26    1.37045       .     S
C26   C25    1.37045       .     S
C25   H37    0.95047       .     S
H37   C25    0.95047       .     S
C26   C27    1.37642   1_655     S
C27   C26    1.37642   1_455     S
C26   H36    0.94976       .     S
H36   C26    0.94976       .     S
C27   S28    1.77452       .     S
S28   C27    1.77452       .     S
C27   C32    1.37709       .     S
C32   C27    1.37709       .     S
S28   O29    1.45716       .     S
O29   S28    1.45716       .     S
S28   O30    1.46261       .     S
O30   S28    1.46261       .     S
S28   O31    1.46251       .     S
O31   S28    1.46251       .     S
C32   C33    1.37473   1_565     S
C33   C32    1.37473   1_545     S
C32   H35    0.95009       .     S
H35   C32    0.95009       .     S
C33   H34    0.94985       .     S
H34   C33    0.94985       .     S
C38   C39    0.62491       .     S
C39   C38    0.62491       .     S
C38   H40    0.86597       .     S
H40   C38    0.86597       .     S
C38   C41    1.37302       .     S
C41   C38    1.37302       .     S
C38   C45    1.17269   1_554     S
C45   C38    1.17269   1_556     S
C38   C46    1.37701   1_554     S
C46   C38    1.37701   1_556     S
C38   H67    0.95066       .     S
H67   C38    0.95066       .     S
C39   H40    0.94997       .     S
H40   C39    0.94997       .     S
C39   C41    0.76567       .     S
C41   C39    0.76567       .     S
C39   C42    1.37068       .     S
C42   C39    1.37068       .     S
C39   C45    1.37768   1_554     S
C45   C39    1.37768   1_556     S
H40   H67    0.62274       .     S
H67   H40    0.62274       .     S
C41   C42    0.62257       .     S
C42   C41    0.62257       .     S
C41   H43    0.94935       .     S
H43   C41    0.94935       .     S
C41   C60    1.38289       .     S
C60   C41    1.38289       .     S
C41   C61    1.76234       .     S
C61   C41    1.76234       .     S
C42   H43    0.81708       .     S
H43   C42    0.81708       .     S
C42   H44    0.94983       .     S
H44   C42    0.94983       .     S
C42   C60    1.22829       .     S
C60   C42    1.22829       .     S
C42   C61    1.38655       .     S
C61   C42    1.38655       .     S
H43   H44    0.62170       .     S
H44   H43    0.62170       .     S
C45   C46    0.62616       .     S
C46   C45    0.62616       .     S
C45   Br51   1.90683       .     S
Br51  C45    1.90683       .     S
C45   C52    1.38289       .     S
C52   C45    1.38289       .     S
C45   C53    1.22829       .     S
C53   C45    1.22829       .     S
C46   C47    1.52667       .     S
C47   C46    1.52667       .     S
C46   Br51   1.29492       .     S
Br51  C46    1.29492       .     S
C46   C52    1.76234       .     S
C52   C46    1.76234       .     S
C46   C53    1.38655       .     S
C53   C46    1.38655       .     S
C47   H48    0.97969       .     S
H48   C47    0.97969       .     S
C47   H49    0.97973       .     S
H49   C47    0.97973       .     S
C47   H50    0.98025       .     S
H50   C47    0.98025       .     S
C47   Br51   0.26396       .     S
Br51  C47    0.26396       .     S
H48   Br51   1.05048       .     S
Br51  H48    1.05048       .     S
H49   Br51   1.18206       .     S
Br51  H49    1.18206       .     S
H50   Br51   1.02603       .     S
Br51  H50    1.02603       .     S
C52   C53    0.62257       .     S
C53   C52    0.62257       .     S
C52   H54    0.94935       .     S
H54   C52    0.94935       .     S
C52   C55    1.37302       .     S
C55   C52    1.37302       .     S
C52   C56    0.76567       .     S
C56   C52    0.76567       .     S
C53   H54    0.81709       .     S
H54   C53    0.81709       .     S
C53   C56    1.37068       .     S
C56   C53    1.37068       .     S
C53   H58    0.94983       .     S
H58   C53    0.94983       .     S
H54   H58    0.62170       .     S
H58   H54    0.62170       .     S
C55   C56    0.62491       .     S
C56   C55    0.62491       .     S
C55   H57    0.86597       .     S
H57   C55    0.86597       .     S
C55   H59    0.95066       .     S
H59   C55    0.95066       .     S
C55   C60    1.17269   1_556     S
C60   C55    1.17269   1_554     S
C55   C61    1.37701   1_556     S
C61   C55    1.37702   1_554     S
C56   H57    0.94997       .     S
H57   C56    0.94997       .     S
C56   C60    1.37768   1_556     S
C60   C56    1.37768   1_554     S
H57   H59    0.62274       .     S
H59   H57    0.62274       .     S
C60   C61    0.62616       .     S
C61   C60    0.62616       .     S
C60   Br66   1.90683       .     S
Br66  C60    1.90683       .     S
C61   C62    1.52667       .     S
C62   C61    1.52667       .     S
C61   Br66   1.29492       .     S
Br66  C61    1.29492       .     S
C62   H63    0.97969       .     S
H63   C62    0.97969       .     S
C62   H64    0.97973       .     S
H64   C62    0.97973       .     S
C62   H65    0.98025       .     S
H65   C62    0.98025       .     S
C62   Br66   0.26396       .     S
Br66  C62    0.26396       .     S
H63   Br66   1.05048       .     S
Br66  H63    1.05048       .     S
H64   Br66   1.18206       .     S
Br66  H64    1.18206       .     S
H65   Br66   1.02603       .     S
Br66  H65    1.02603       .     S
O12   H4     2.00239       .     S
H4    O12    2.00239       .     S
O11   H5     2.15537   1_545     S
H5    O11    2.15537   1_565     S
O11   H6     2.57970   1_645     S
H6    O11    2.57970   1_465     S
O29   H6     2.59331       .     S
H6    O29    2.59331       .     S
O13   H7     2.08061   1_545     S
H7    O13    2.08060   1_565     S
O13   H8     2.10747       .     S
H8    O13    2.10747       .     S
O12   H9     2.07072   1_655     S
H9    O12    2.07072   1_455     S
N1    C0     1.32269       .     S
C0    N1     1.32269       .     S
N2    C0     1.33076       .     S
C0    N2     1.33076       .     S
N3    C0     1.32239       .     S
C0    N3     1.32239       .     S
H4    N1     0.87986       .     S
N1    H4     0.87986       .     S
H5    N1     0.88056       .     S
N1    H5     0.88056       .     S
H6    N2     0.87955       .     S
N2    H6     0.87955       .     S
H7    N2     0.87997       .     S
N2    H7     0.87997       .     S
H8    N3     0.87973       .     S
N3    H8     0.87973       .     S
H9    N3     0.88009       .     S
N3    H9     0.88009       .     S
O11   S10    1.45715       .     S
S10   O11    1.45715       .     S
O12   S10    1.46261       .     S
S10   O12    1.46261       .     S
O13   S10    1.46250       .     S
S10   O13    1.46250       .     S
C14   S10    1.77452       .     S
S10   C14    1.77452       .     S
C15   C14    1.37642   1_455     S
C14   C15    1.37642   1_655     S
C19   C14    1.37709       .     S
C14   C19    1.37709       .     S
C16   C15    1.37045       .     S
C15   C16    1.37045       .     S
H20   C15    0.94976       .     S
C15   H20    0.94976       .     S
C17   C16    1.38568   1_655     S
C16   C17    1.38568   1_455     S
H21   C16    0.95047       .     S
C16   H21    0.95047       .     S
C18   C17    1.38256   1_565     S
C17   C18    1.38256   1_545     S
C24   C17    1.48122   1_466     S
C17   C24    1.48122   1_644     S
C19   C18    1.37473   1_545     S
C18   C19    1.37473   1_565     S
H22   C18    0.94985       .     S
C18   H22    0.94985       .     S
H23   C19    0.95009       .     S
C19   H23    0.95009       .     S
C25   C24    1.38568   1_655     S
C24   C25    1.38568   1_455     S
C33   C24    1.38256   1_545     S
C24   C33    1.38256   1_565     S
C26   C25    1.37045       .     S
C25   C26    1.37045       .     S
H37   C25    0.95047       .     S
C25   H37    0.95047       .     S
C27   C26    1.37642   1_455     S
C26   C27    1.37642   1_655     S
H36   C26    0.94976       .     S
C26   H36    0.94976       .     S
S28   C27    1.77452       .     S
C27   S28    1.77452       .     S
C32   C27    1.37709       .     S
C27   C32    1.37709       .     S
O29   S28    1.45716       .     S
S28   O29    1.45716       .     S
O30   S28    1.46261       .     S
S28   O30    1.46261       .     S
O31   S28    1.46251       .     S
S28   O31    1.46251       .     S
C33   C32    1.37473   1_545     S
C32   C33    1.37473   1_565     S
H35   C32    0.95009       .     S
C32   H35    0.95009       .     S
H34   C33    0.94985       .     S
C33   H34    0.94985       .     S
C39   C38    0.62491       .     S
C38   C39    0.62491       .     S
H40   C38    0.86597       .     S
C38   H40    0.86597       .     S
C41   C38    1.37302       .     S
C38   C41    1.37302       .     S
C45   C38    1.17269   1_556     S
C38   C45    1.17269   1_554     S
C46   C38    1.37701   1_556     S
C38   C46    1.37701   1_554     S
H67   C38    0.95066       .     S
C38   H67    0.95066       .     S
H40   C39    0.94997       .     S
C39   H40    0.94997       .     S
C41   C39    0.76567       .     S
C39   C41    0.76567       .     S
C42   C39    1.37068       .     S
C39   C42    1.37068       .     S
C45   C39    1.37768   1_556     S
C39   C45    1.37768   1_554     S
H67   H40    0.62274       .     S
H40   H67    0.62274       .     S
C42   C41    0.62257       .     S
C41   C42    0.62257       .     S
H43   C41    0.94935       .     S
C41   H43    0.94935       .     S
C60   C41    1.38289       .     S
C41   C60    1.38289       .     S
C61   C41    1.76234       .     S
C41   C61    1.76234       .     S
H43   C42    0.81708       .     S
C42   H43    0.81708       .     S
H44   C42    0.94983       .     S
C42   H44    0.94983       .     S
C60   C42    1.22829       .     S
C42   C60    1.22829       .     S
C61   C42    1.38655       .     S
C42   C61    1.38655       .     S
H44   H43    0.62170       .     S
H43   H44    0.62170       .     S
C46   C45    0.62616       .     S
C45   C46    0.62616       .     S
Br51  C45    1.90683       .     S
C45   Br51   1.90683       .     S
C52   C45    1.38289       .     S
C45   C52    1.38289       .     S
C53   C45    1.22829       .     S
C45   C53    1.22829       .     S
C47   C46    1.52667       .     S
C46   C47    1.52667       .     S
Br51  C46    1.29492       .     S
C46   Br51   1.29492       .     S
C52   C46    1.76234       .     S
C46   C52    1.76234       .     S
C53   C46    1.38655       .     S
C46   C53    1.38655       .     S
H48   C47    0.97969       .     S
C47   H48    0.97969       .     S
H49   C47    0.97973       .     S
C47   H49    0.97973       .     S
H50   C47    0.98025       .     S
C47   H50    0.98025       .     S
Br51  C47    0.26396       .     S
C47   Br51   0.26396       .     S
Br51  H48    1.05048       .     S
H48   Br51   1.05048       .     S
Br51  H49    1.18206       .     S
H49   Br51   1.18206       .     S
Br51  H50    1.02603       .     S
H50   Br51   1.02603       .     S
C53   C52    0.62257       .     S
C52   C53    0.62257       .     S
H54   C52    0.94935       .     S
C52   H54    0.94935       .     S
C55   C52    1.37302       .     S
C52   C55    1.37302       .     S
C56   C52    0.76567       .     S
C52   C56    0.76567       .     S
H54   C53    0.81709       .     S
C53   H54    0.81709       .     S
C56   C53    1.37068       .     S
C53   C56    1.37068       .     S
H58   C53    0.94983       .     S
C53   H58    0.94983       .     S
H58   H54    0.62170       .     S
H54   H58    0.62170       .     S
C56   C55    0.62491       .     S
C55   C56    0.62491       .     S
H57   C55    0.86597       .     S
C55   H57    0.86597       .     S
H59   C55    0.95066       .     S
C55   H59    0.95066       .     S
C60   C55    1.17269   1_554     S
C55   C60    1.17269   1_556     S
C61   C55    1.37702   1_554     S
C55   C61    1.37701   1_556     S
H57   C56    0.94997       .     S
C56   H57    0.94997       .     S
C60   C56    1.37768   1_554     S
C56   C60    1.37768   1_556     S
H59   H57    0.62274       .     S
H57   H59    0.62274       .     S
C61   C60    0.62616       .     S
C60   C61    0.62616       .     S
Br66  C60    1.90683       .     S
C60   Br66   1.90683       .     S
C62   C61    1.52667       .     S
C61   C62    1.52667       .     S
Br66  C61    1.29492       .     S
C61   Br66   1.29492       .     S
H63   C62    0.97969       .     S
C62   H63    0.97969       .     S
H64   C62    0.97973       .     S
C62   H64    0.97973       .     S
H65   C62    0.98025       .     S
C62   H65    0.98025       .     S
Br66  C62    0.26396       .     S
C62   Br66   0.26396       .     S
Br66  H63    1.05048       .     S
H63   Br66   1.05048       .     S
Br66  H64    1.18206       .     S
H64   Br66   1.18206       .     S
Br66  H65    1.02603       .     S
H65   Br66   1.02603       .     S
