data_I
_chemical_name_common  '/data/user2/wty/HOF/MOFDiff/mofdiff/data/test/1_9'
_cell_length_a 15.31450
_cell_length_b  7.56370
_cell_length_c 23.90290
_cell_angle_alpha 90.00000
_cell_angle_beta  105.32100
_cell_angle_gamma 90.00000
_space_group_name_H-M_alt      'P 1'


loop_
_space_group_symop_operation_xyz
  'x, y, z' 

loop_
_atom_site_label
_atom_site_fract_x
_atom_site_fract_y
_atom_site_fract_z
_atom_site_type_symbol
C0      0.8709   0.4459   0.2626     C
N1      0.8918   0.5359   0.3119     N
H2      0.8493   0.5643   0.3288     H
H3      0.9483   0.5675   0.3277     H
N4      0.9354   0.4085   0.2368     N
H5       0.922   0.3516   0.2035     H
H6      0.9917   0.4407    0.253     H
N7      0.7864   0.3981   0.2387     N
H8      0.7436   0.4262   0.2555     H
H9      0.7728   0.3383    0.206     H
C10     0.6252   0.5714   0.7363     C
N11     0.6061   0.4787   0.6874     N
H12     0.5497   0.4504   0.6702     H
H13     0.6499   0.4455   0.6722     H
N14     0.7108   0.6141   0.7626     N
H15     0.7233   0.6752    0.795     H
H16     0.7547    0.581   0.7474     H
N17     0.5596   0.6217   0.7593     N
H18      0.503   0.5936   0.7422     H
H19     0.5724   0.6832   0.7917     H
Br20    0.5401    0.596    0.549    Br
C21     0.5323   0.8414   0.5248     C
H22     0.5547   0.7327   0.5428     H
C23    0.52114  0.98528   0.5584     C
Br24   0.55113  0.96412  0.64119    Br
C25     0.5115   0.8563   0.4678     C
H26     0.5191   0.7581   0.4447     H
C27     0.4885   0.1437   0.5322     C
C28     0.4677   0.1586   0.4752     C
H29     0.4453   0.2673   0.4572     H
C30    0.47886  0.01472   0.4416     C
Br31   0.44887  0.03588  0.35881    Br
H32     0.4809   0.2419   0.5553     H
S33    0.34182   0.4854  0.65039     S
O34     0.4168   0.3851   0.6392     O
O35     0.2598   0.3774   0.6409     O
O36     0.3651   0.5672  0.70781     O
C37     0.3165   0.6595   0.5993     C
C38      0.304   0.8304   0.6167     C
H39     0.3131   0.8559   0.6568     H
C40     0.2787   0.9623   0.5767     C
H41      0.271   0.0791   0.5892     H
C42      0.264   0.9272   0.5172     C
C43     0.2786   0.7561   0.5005     C
H44     0.2702   0.7302   0.4606     H
C45     0.3054   0.6231   0.5411     C
H46      0.316   0.5071   0.5291     H
C47      0.233     0.07   0.4735     C
C48     0.2497   0.0613    0.419     C
H49     0.2797   0.9607   0.4092     H
C50     0.2235   0.1953   0.3791     C
H51     0.2354   0.1867   0.3421     H
C52     0.1799   0.3424    0.393     C
C53     0.1593   0.3518   0.4464     C
H54     0.1273   0.4504   0.4555     H
C55     0.1863   0.2155   0.4857     C
H56     0.1723   0.2218   0.5221     H
S57    0.15665    0.523  0.34426     S
O58     0.0836   0.6243   0.3574     O
O59     0.1318   0.4488  0.28575     O
O60     0.2406   0.6254   0.3549     O
C61     0.0218   0.8675   0.4637     C
H62      0.036   0.7789   0.4393     H
C63     0.9713   0.0171   0.4409     C
Br64   0.93268  0.04005  0.35894    Br
C65     0.0505   0.8543   0.5242     C
H66     0.0856   0.7553   0.5415     H
C67     0.9495   0.1457   0.4758     C
C68     0.9782   0.1325   0.5363     C
H69      0.964   0.2211   0.5607     H
C70     0.0287   0.9829   0.5591     C
Br71   0.06732  0.95995  0.64106    Br
H72     0.9144   0.2447   0.4585     H
loop_
_geom_bond_atom_site_label_1
_geom_bond_atom_site_label_2
_geom_bond_distance
_geom_bond_site_symmetry_2
_ccdc_geom_bond_type
H3    O58    2.05051   1_655     S
O58   H3     2.05051   1_455     S
H6    O59    2.08144   1_655     S
O59   H6     2.08144   1_455     S
H12   O34    2.03432       .     S
O34   H12    2.03432       .     S
H18   O36    2.06354       .     S
O36   H18    2.06354       .     S
C0    N1     1.32483       .     S
N1    C0     1.32483       .     S
C0    N4     1.32588       .     S
N4    C0     1.32588       .     S
C0    N7     1.31948       .     S
N7    C0     1.31948       .     S
N1    H2     0.87858       .     S
H2    N1     0.87858       .     S
N1    H3     0.88077       .     S
H3    N1     0.88077       .     S
N4    H5     0.88010       .     S
H5    N4     0.88010       .     S
N4    H6     0.88104       .     S
H6    N4     0.88104       .     S
N7    H8     0.88043       .     S
H8    N7     0.88043       .     S
N7    H9     0.87913       .     S
H9    N7     0.87913       .     S
C10   N11    1.32767       .     S
N11   C10    1.32767       .     S
C10   N14    1.33511       .     S
N14   C10    1.33511       .     S
C10   N17    1.32217       .     S
N17   C10    1.32217       .     S
N11   H12    0.87934       .     S
H12   N11    0.87934       .     S
N11   H13    0.87965       .     S
H13   N11    0.87965       .     S
N14   H15    0.87844       .     S
H15   N14    0.87844       .     S
N14   H16    0.88077       .     S
H16   N14    0.88077       .     S
N17   H18    0.88111       .     S
H18   N17    0.88111       .     S
N17   H19    0.87998       .     S
H19   N17    0.87998       .     S
Br20  C21    1.93845       .     S
C21   Br20   1.93845       .     S
Br20  H22    1.07635       .     S
H22   Br20   1.07635       .     S
C21   H22    0.94909       .     S
H22   C21    0.94909       .     S
C21   C23    1.38964       .     S
C23   C21    1.38964       .     S
C21   C25    1.31952       .     S
C25   C21    1.31952       .     S
C23   Br24   1.91635       .     S
Br24  C23    1.91635       .     S
C23   C27    1.38290   1_565     S
C27   C23    1.38290   1_545     S
C25   H26    0.95083       .     S
H26   C25    0.95083       .     S
C25   C30    1.38290   1_565     S
C30   C25    1.38290   1_545     S
C27   C28    1.31952       .     S
C28   C27    1.31952       .     S
C27   H32    0.95083       .     S
H32   C27    0.95083       .     S
C28   H29    0.94909       .     S
H29   C28    0.94909       .     S
C28   C30    1.38964       .     S
C30   C28    1.38964       .     S
C30   Br31   1.91635       .     S
Br31  C30    1.91635       .     S
S33   O34    1.45874       .     S
O34   S33    1.45874       .     S
S33   O35    1.46491       .     S
O35   S33    1.46491       .     S
S33   O36    1.46119       .     S
O36   S33    1.46119       .     S
S33   C37    1.76791       .     S
C37   S33    1.76791       .     S
C37   C38    1.38658       .     S
C38   C37    1.38658       .     S
C37   C45    1.38384       .     S
C45   C37    1.38384       .     S
C38   H39    0.95119       .     S
H39   C38    0.95119       .     S
C38   C40    1.36522       .     S
C40   C38    1.36522       .     S
C40   H41    0.94988   1_565     S
H41   C40    0.94988   1_545     S
C40   C42    1.40523       .     S
C42   C40    1.40523       .     S
C42   C43    1.38972       .     S
C43   C42    1.38972       .     S
C42   C47    1.49031   1_565     S
C47   C42    1.49031   1_545     S
C43   H44    0.94852       .     S
H44   C43    0.94852       .     S
C43   C45    1.38266       .     S
C45   C43    1.38266       .     S
C45   H46    0.95029       .     S
H46   C45    0.95029       .     S
C47   C48    1.39386       .     S
C48   C47    1.39386       .     S
C47   C55    1.38488       .     S
C55   C47    1.38488       .     S
C48   H49    0.94964   1_545     S
H49   C48    0.94964   1_565     S
C48   C50    1.37681       .     S
C50   C48    1.37681       .     S
C50   H51    0.95121       .     S
H51   C50    0.95121       .     S
C50   C52    1.38253       .     S
C52   C50    1.38253       .     S
C52   C53    1.39521       .     S
C53   C52    1.39521       .     S
C52   S57    1.76941       .     S
S57   C52    1.76941       .     S
C53   H54    0.94868       .     S
H54   C53    0.94868       .     S
C53   C55    1.38238       .     S
C55   C53    1.38238       .     S
C55   H56    0.95070       .     S
H56   C55    0.95070       .     S
S57   O58    1.45703       .     S
O58   S57    1.45703       .     S
S57   O59    1.46099       .     S
O59   S57    1.46099       .     S
S57   O60    1.46447       .     S
O60   S57    1.46447       .     S
C61   H62    0.95056       .     S
H62   C61    0.95056       .     S
C61   C63    1.39741   1_465     S
C63   C61    1.39741   1_645     S
C61   C65    1.39948       .     S
C65   C61    1.39948       .     S
C63   Br64   1.89885       .     S
Br64  C63    1.89885       .     S
C63   C67    1.37865       .     S
C67   C63    1.37865       .     S
C65   H66    0.95036       .     S
H66   C65    0.95036       .     S
C65   C70    1.37865       .     S
C70   C65    1.37865       .     S
C67   C68    1.39948       .     S
C68   C67    1.39948       .     S
C67   H72    0.95036       .     S
H72   C67    0.95036       .     S
C68   H69    0.95056       .     S
H69   C68    0.95056       .     S
C68   C70    1.39741   1_645     S
C70   C68    1.39741   1_465     S
C70   Br71   1.89885       .     S
Br71  C70    1.89885       .     S
O58   H3     2.05051   1_455     S
H3    O58    2.05051   1_655     S
O59   H6     2.08144   1_455     S
H6    O59    2.08144   1_655     S
O34   H12    2.03432       .     S
H12   O34    2.03432       .     S
O36   H18    2.06354       .     S
H18   O36    2.06354       .     S
N1    C0     1.32483       .     S
C0    N1     1.32483       .     S
N4    C0     1.32588       .     S
C0    N4     1.32588       .     S
N7    C0     1.31948       .     S
C0    N7     1.31948       .     S
H2    N1     0.87858       .     S
N1    H2     0.87858       .     S
H3    N1     0.88077       .     S
N1    H3     0.88077       .     S
H5    N4     0.88010       .     S
N4    H5     0.88010       .     S
H6    N4     0.88104       .     S
N4    H6     0.88104       .     S
H8    N7     0.88043       .     S
N7    H8     0.88043       .     S
H9    N7     0.87913       .     S
N7    H9     0.87913       .     S
N11   C10    1.32767       .     S
C10   N11    1.32767       .     S
N14   C10    1.33511       .     S
C10   N14    1.33511       .     S
N17   C10    1.32217       .     S
C10   N17    1.32217       .     S
H12   N11    0.87934       .     S
N11   H12    0.87934       .     S
H13   N11    0.87965       .     S
N11   H13    0.87965       .     S
H15   N14    0.87844       .     S
N14   H15    0.87844       .     S
H16   N14    0.88077       .     S
N14   H16    0.88077       .     S
H18   N17    0.88111       .     S
N17   H18    0.88111       .     S
H19   N17    0.87998       .     S
N17   H19    0.87998       .     S
C21   Br20   1.93845       .     S
Br20  C21    1.93845       .     S
H22   Br20   1.07635       .     S
Br20  H22    1.07635       .     S
H22   C21    0.94909       .     S
C21   H22    0.94909       .     S
C23   C21    1.38964       .     S
C21   C23    1.38964       .     S
C25   C21    1.31952       .     S
C21   C25    1.31952       .     S
Br24  C23    1.91635       .     S
C23   Br24   1.91635       .     S
C27   C23    1.38290   1_545     S
C23   C27    1.38290   1_565     S
H26   C25    0.95083       .     S
C25   H26    0.95083       .     S
C30   C25    1.38290   1_545     S
C25   C30    1.38290   1_565     S
C28   C27    1.31952       .     S
C27   C28    1.31952       .     S
H32   C27    0.95083       .     S
C27   H32    0.95083       .     S
H29   C28    0.94909       .     S
C28   H29    0.94909       .     S
C30   C28    1.38964       .     S
C28   C30    1.38964       .     S
Br31  C30    1.91635       .     S
C30   Br31   1.91635       .     S
O34   S33    1.45874       .     S
S33   O34    1.45874       .     S
O35   S33    1.46491       .     S
S33   O35    1.46491       .     S
O36   S33    1.46119       .     S
S33   O36    1.46119       .     S
C37   S33    1.76791       .     S
S33   C37    1.76791       .     S
C38   C37    1.38658       .     S
C37   C38    1.38658       .     S
C45   C37    1.38384       .     S
C37   C45    1.38384       .     S
H39   C38    0.95119       .     S
C38   H39    0.95119       .     S
C40   C38    1.36522       .     S
C38   C40    1.36522       .     S
H41   C40    0.94988   1_545     S
C40   H41    0.94988   1_565     S
C42   C40    1.40523       .     S
C40   C42    1.40523       .     S
C43   C42    1.38972       .     S
C42   C43    1.38972       .     S
C47   C42    1.49031   1_545     S
C42   C47    1.49031   1_565     S
H44   C43    0.94852       .     S
C43   H44    0.94852       .     S
C45   C43    1.38266       .     S
C43   C45    1.38266       .     S
H46   C45    0.95029       .     S
C45   H46    0.95029       .     S
C48   C47    1.39386       .     S
C47   C48    1.39386       .     S
C55   C47    1.38488       .     S
C47   C55    1.38488       .     S
H49   C48    0.94964   1_565     S
C48   H49    0.94964   1_545     S
C50   C48    1.37681       .     S
C48   C50    1.37681       .     S
H51   C50    0.95121       .     S
C50   H51    0.95121       .     S
C52   C50    1.38253       .     S
C50   C52    1.38253       .     S
C53   C52    1.39521       .     S
C52   C53    1.39521       .     S
S57   C52    1.76941       .     S
C52   S57    1.76941       .     S
H54   C53    0.94868       .     S
C53   H54    0.94868       .     S
C55   C53    1.38238       .     S
C53   C55    1.38238       .     S
H56   C55    0.95070       .     S
C55   H56    0.95070       .     S
O58   S57    1.45703       .     S
S57   O58    1.45703       .     S
O59   S57    1.46099       .     S
S57   O59    1.46099       .     S
O60   S57    1.46447       .     S
S57   O60    1.46447       .     S
H62   C61    0.95056       .     S
C61   H62    0.95056       .     S
C63   C61    1.39741   1_645     S
C61   C63    1.39741   1_465     S
C65   C61    1.39948       .     S
C61   C65    1.39948       .     S
Br64  C63    1.89885       .     S
C63   Br64   1.89885       .     S
C67   C63    1.37865       .     S
C63   C67    1.37865       .     S
H66   C65    0.95036       .     S
C65   H66    0.95036       .     S
C70   C65    1.37865       .     S
C65   C70    1.37865       .     S
C68   C67    1.39948       .     S
C67   C68    1.39948       .     S
H72   C67    0.95036       .     S
C67   H72    0.95036       .     S
H69   C68    0.95056       .     S
C68   H69    0.95056       .     S
C70   C68    1.39741   1_465     S
C68   C70    1.39741   1_645     S
Br71  C70    1.89885       .     S
C70   Br71   1.89885       .     S
