data_I
_chemical_name_common  '/data/user2/wty/HOF/MOFDiff/mofdiff/data/test/2002164359m-tpy'
_cell_length_a 41.26120
_cell_length_b  3.76808
_cell_length_c 43.44660
_cell_angle_alpha 90.00000
_cell_angle_beta  114.06800
_cell_angle_gamma 90.00000
_space_group_name_H-M_alt      'P 1'


loop_
_space_group_symop_operation_xyz
  'x, y, z' 

loop_
_atom_site_label
_atom_site_fract_x
_atom_site_fract_y
_atom_site_fract_z
_atom_site_type_symbol
C0     0.33634   0.9084  0.38077     C
N1     0.30744   0.7483  0.38143     N
C2     0.30934   0.6735  0.41224     C
N3     0.33728   0.7495  0.44117     N
C4     0.36427   0.9121   0.4377     C
N5     0.36553   0.9953  0.40815     N
C6     0.33536   0.9944  0.34722     C
C7     0.30442   0.9348  0.31814     C
H8     0.28391  0.84177  0.32003     H
C9     0.30359   0.0102  0.28685     C
H10    0.28234  0.96929   0.2674     H
C11    0.33313    0.145  0.28298     C
C12    0.36426   0.2067   0.3125     C
H13    0.38487  0.29815  0.31067     H
C14    0.36492   0.1352  0.34389     C
H15    0.38584  0.18279  0.36348     H
C16    0.33264   0.2208  0.24932     C
C17    0.30275   0.3629  0.22345     C
H18    0.28198  0.41308  0.22702     H
C19    0.30364     0.43  0.19255     C
H20    0.28305  0.52959  0.17539     H
N21    0.33126    0.365   0.1852     N
C22       0.36   0.2212  0.21045     C
H23    0.38007  0.16586  0.20588     H
C24    0.36195   0.1505  0.24221     C
H25    0.38303  0.05499  0.25905     H
C26    0.27809   0.5069  0.41486     C
C27    0.27868    0.395  0.44561     C
H28        0.3    0.412  0.46545     H
C29    0.24837   0.2591   0.4474     C
H30    0.24925  0.17949  0.46847     H
C31    0.21604   0.2365  0.41838     C
C32    0.21627   0.3413  0.38789     C
H33     0.1951  0.32187  0.36793     H
C34    0.24654   0.4733  0.38586     C
H35    0.24596  0.54197   0.3646     H
C36    0.18331   0.1147  0.42079     C
C37    0.17731   0.1629  0.44991     C
H38    0.19528   0.2634  0.46949     H
C39    0.14525   0.0643  0.45019     C
H40    0.14192  0.10307  0.47031     H
N41    0.11834   0.9168  0.42387     N
C42    0.12464   0.8657  0.39652     C
H43    0.10638  0.75827  0.37759     H
C44    0.15567   0.9566  0.39342     C
H45     0.1582  0.91229  0.37299     H
C46    0.39486   0.0094  0.46917     C
C47    0.42524   0.1682  0.46868     C
H48    0.42653  0.21744  0.44777     H
C49    0.45364   0.2543  0.49881     C
H50    0.47459  0.35303  0.49828     H
C51    0.45173    0.198  0.52953     C
C52    0.42107   0.0468  0.52983     C
H53     0.4193  0.00848   0.5507     H
C54    0.39318    0.952  0.50007     C
H55    0.37259  0.84617  0.50075     H
C56     0.4816   0.2951  0.56198     C
C57    0.51702   0.2586  0.56711     C
H58    0.52294  0.18077  0.54925     H
C59    0.54346   0.3361  0.59824     C
H60    0.56742  0.30474  0.60127     H
N61    0.53723   0.4535  0.62454     N
C62    0.50323    0.495  0.61924     C
H63     0.4982  0.58081  0.63738     H
C64    0.47496   0.4217  0.58923     C
H65    0.45131  0.45638  0.58701     H
loop_
_geom_bond_atom_site_label_1
_geom_bond_atom_site_label_2
_geom_bond_distance
_geom_bond_site_symmetry_2
_ccdc_geom_bond_type
C0    N1     1.34706       .     S
N1    C0     1.34706       .     S
C0    N5     1.34325       .     S
N5    C0     1.34325       .     S
C0    C6     1.47759       .     S
C6    C0     1.47759       .     S
N1    C2     1.33859       .     S
C2    N1     1.33859       .     S
C2    N3     1.34499       .     S
N3    C2     1.34499       .     S
C2    C26    1.47964       .     S
C26   C2     1.47964       .     S
N3    C4     1.33239       .     S
C4    N3     1.33239       .     S
C4    N5     1.34302       .     S
N5    C4     1.34302       .     S
C4    C46    1.47965   1_565     S
C46   C4     1.47965   1_545     S
C6    C7     1.40032       .     S
C7    C6     1.40032       .     S
C6    C14    1.39067   1_565     S
C14   C6     1.39067   1_545     S
C7    H8     0.94998       .     S
H8    C7     0.94998       .     S
C7    C9     1.37550   1_565     S
C9    C7     1.37550   1_545     S
C9    H10    0.94989   1_545     S
H10   C9     0.94989   1_565     S
C9    C11    1.39249       .     S
C11   C9     1.39249       .     S
C11   C12    1.41603       .     S
C12   C11    1.41603       .     S
C11   C16    1.48207       .     S
C16   C11    1.48207       .     S
C12   H13    0.95046       .     S
H13   C12    0.95046       .     S
C12   C14    1.37948       .     S
C14   C12    1.37948       .     S
C14   H15    0.94996       .     S
H15   C14    0.94996       .     S
C16   C17    1.39298       .     S
C17   C16    1.39298       .     S
C16   C24    1.39028       .     S
C24   C16    1.39028       .     S
C17   H18    0.95009       .     S
H18   C17    0.95009       .     S
C17   C19    1.38123       .     S
C19   C17    1.38123       .     S
C19   H20    0.94963       .     S
H20   C19    0.94963       .     S
C19   N21    1.32573       .     S
N21   C19    1.32573       .     S
N21   C22    1.35729       .     S
C22   N21    1.35729       .     S
C22   H23    0.95015       .     S
H23   C22    0.95015       .     S
C22   C24    1.37511       .     S
C24   C22    1.37511       .     S
C24   H25    0.94989       .     S
H25   C24    0.94989       .     S
C26   C27    1.39165       .     S
C27   C26    1.39165       .     S
C26   C34    1.40013       .     S
C34   C26    1.40013       .     S
C27   H28    0.94999       .     S
H28   C27    0.94999       .     S
C27   C29    1.38263       .     S
C29   C27    1.38263       .     S
C29   H30    0.94984       .     S
H30   C29    0.94984       .     S
C29   C31    1.41583       .     S
C31   C29    1.41583       .     S
C31   C32    1.38603       .     S
C32   C31    1.38603       .     S
C31   C36    1.46994       .     S
C36   C31    1.46994       .     S
C32   H33    0.95002       .     S
H33   C32    0.95002       .     S
C32   C34    1.38020       .     S
C34   C32    1.38020       .     S
C34   H35    0.95009       .     S
H35   C34    0.95009       .     S
C36   C37    1.39656       .     S
C37   C36    1.39656       .     S
C36   C44    1.40123   1_545     S
C44   C36    1.40123   1_565     S
C37   H38    0.94993       .     S
H38   C37    0.94993       .     S
C37   C39    1.37884       .     S
C39   C37    1.37884       .     S
C39   H40    0.94990       .     S
H40   C39    0.94990       .     S
C39   N41    1.34676   1_545     S
N41   C39    1.34676   1_565     S
N41   C42    1.32987       .     S
C42   N41    1.32987       .     S
C42   H43    0.95001       .     S
H43   C42    0.95001       .     S
C42   C44    1.38397       .     S
C44   C42    1.38397       .     S
C44   H45    0.94985       .     S
H45   C44    0.94985       .     S
C46   C47    1.39699       .     S
C47   C46    1.39699       .     S
C46   C54    1.38917   1_545     S
C54   C46    1.38917   1_565     S
C47   H48    0.94974       .     S
H48   C47    0.94974       .     S
C47   C49    1.39314       .     S
C49   C47    1.39314       .     S
C49   H50    0.94994       .     S
H50   C49    0.94994       .     S
C49   C51    1.38506       .     S
C51   C49    1.38506       .     S
C51   C52    1.39234       .     S
C52   C51    1.39234       .     S
C51   C56    1.49106       .     S
C56   C51    1.49106       .     S
C52   H53    0.94993       .     S
H53   C52    0.94993       .     S
C52   C54    1.38205   1_545     S
C54   C52    1.38205   1_565     S
C54   H55    0.94981       .     S
H55   C54    0.94981       .     S
C56   C57    1.39241       .     S
C57   C56    1.39241       .     S
C56   C64    1.40316       .     S
C64   C56    1.40316       .     S
C57   H58    0.94994       .     S
H58   C57    0.94994       .     S
C57   C59    1.37884       .     S
C59   C57    1.37884       .     S
C59   H60    0.95000       .     S
H60   C59    0.95000       .     S
C59   N61    1.34424       .     S
N61   C59    1.34424       .     S
N61   C62    1.33494       .     S
C62   N61    1.33494       .     S
C62   H63    0.94983       .     S
H63   C62    0.94983       .     S
C62   C64    1.37710       .     S
C64   C62    1.37710       .     S
C64   H65    0.94966       .     S
H65   C64    0.94966       .     S
N1    C0     1.34706       .     S
C0    N1     1.34706       .     S
N5    C0     1.34325       .     S
C0    N5     1.34325       .     S
C6    C0     1.47759       .     S
C0    C6     1.47759       .     S
C2    N1     1.33859       .     S
N1    C2     1.33859       .     S
N3    C2     1.34499       .     S
C2    N3     1.34499       .     S
C26   C2     1.47964       .     S
C2    C26    1.47964       .     S
C4    N3     1.33239       .     S
N3    C4     1.33239       .     S
N5    C4     1.34302       .     S
C4    N5     1.34302       .     S
C46   C4     1.47965   1_545     S
C4    C46    1.47965   1_565     S
C7    C6     1.40032       .     S
C6    C7     1.40032       .     S
C14   C6     1.39067   1_545     S
C6    C14    1.39067   1_565     S
H8    C7     0.94998       .     S
C7    H8     0.94998       .     S
C9    C7     1.37550   1_545     S
C7    C9     1.37550   1_565     S
H10   C9     0.94989   1_565     S
C9    H10    0.94989   1_545     S
C11   C9     1.39249       .     S
C9    C11    1.39249       .     S
C12   C11    1.41603       .     S
C11   C12    1.41603       .     S
C16   C11    1.48207       .     S
C11   C16    1.48207       .     S
H13   C12    0.95046       .     S
C12   H13    0.95046       .     S
C14   C12    1.37948       .     S
C12   C14    1.37948       .     S
H15   C14    0.94996       .     S
C14   H15    0.94996       .     S
C17   C16    1.39298       .     S
C16   C17    1.39298       .     S
C24   C16    1.39028       .     S
C16   C24    1.39028       .     S
H18   C17    0.95009       .     S
C17   H18    0.95009       .     S
C19   C17    1.38123       .     S
C17   C19    1.38123       .     S
H20   C19    0.94963       .     S
C19   H20    0.94963       .     S
N21   C19    1.32573       .     S
C19   N21    1.32573       .     S
C22   N21    1.35729       .     S
N21   C22    1.35729       .     S
H23   C22    0.95015       .     S
C22   H23    0.95015       .     S
C24   C22    1.37511       .     S
C22   C24    1.37511       .     S
H25   C24    0.94989       .     S
C24   H25    0.94989       .     S
C27   C26    1.39165       .     S
C26   C27    1.39165       .     S
C34   C26    1.40013       .     S
C26   C34    1.40013       .     S
H28   C27    0.94999       .     S
C27   H28    0.94999       .     S
C29   C27    1.38263       .     S
C27   C29    1.38263       .     S
H30   C29    0.94984       .     S
C29   H30    0.94984       .     S
C31   C29    1.41583       .     S
C29   C31    1.41583       .     S
C32   C31    1.38603       .     S
C31   C32    1.38603       .     S
C36   C31    1.46994       .     S
C31   C36    1.46994       .     S
H33   C32    0.95002       .     S
C32   H33    0.95002       .     S
C34   C32    1.38020       .     S
C32   C34    1.38020       .     S
H35   C34    0.95009       .     S
C34   H35    0.95009       .     S
C37   C36    1.39656       .     S
C36   C37    1.39656       .     S
C44   C36    1.40123   1_565     S
C36   C44    1.40123   1_545     S
H38   C37    0.94993       .     S
C37   H38    0.94993       .     S
C39   C37    1.37884       .     S
C37   C39    1.37884       .     S
H40   C39    0.94990       .     S
C39   H40    0.94990       .     S
N41   C39    1.34676   1_565     S
C39   N41    1.34676   1_545     S
C42   N41    1.32987       .     S
N41   C42    1.32987       .     S
H43   C42    0.95001       .     S
C42   H43    0.95001       .     S
C44   C42    1.38397       .     S
C42   C44    1.38397       .     S
H45   C44    0.94985       .     S
C44   H45    0.94985       .     S
C47   C46    1.39699       .     S
C46   C47    1.39699       .     S
C54   C46    1.38917   1_565     S
C46   C54    1.38917   1_545     S
H48   C47    0.94974       .     S
C47   H48    0.94974       .     S
C49   C47    1.39314       .     S
C47   C49    1.39314       .     S
H50   C49    0.94994       .     S
C49   H50    0.94994       .     S
C51   C49    1.38506       .     S
C49   C51    1.38506       .     S
C52   C51    1.39234       .     S
C51   C52    1.39234       .     S
C56   C51    1.49106       .     S
C51   C56    1.49106       .     S
H53   C52    0.94993       .     S
C52   H53    0.94993       .     S
C54   C52    1.38205   1_565     S
C52   C54    1.38205   1_545     S
H55   C54    0.94981       .     S
C54   H55    0.94981       .     S
C57   C56    1.39241       .     S
C56   C57    1.39241       .     S
C64   C56    1.40316       .     S
C56   C64    1.40316       .     S
H58   C57    0.94994       .     S
C57   H58    0.94994       .     S
C59   C57    1.37884       .     S
C57   C59    1.37884       .     S
H60   C59    0.95000       .     S
C59   H60    0.95000       .     S
N61   C59    1.34424       .     S
C59   N61    1.34424       .     S
C62   N61    1.33494       .     S
N61   C62    1.33494       .     S
H63   C62    0.94983       .     S
C62   H63    0.94983       .     S
C64   C62    1.37710       .     S
C62   C64    1.37710       .     S
H65   C64    0.94966       .     S
C64   H65    0.94966       .     S
