data_I
_chemical_name_common  '/data/user2/wty/HOF/MOFDiff/mofdiff/data/test/201-hof-fju-2acetone'
_cell_length_a  6.49310
_cell_length_b 22.17640
_cell_length_c 24.00410
_cell_angle_alpha 90.00000
_cell_angle_beta  106.18600
_cell_angle_gamma 90.00000
_space_group_name_H-M_alt      'P 1'


loop_
_space_group_symop_operation_xyz
  'x, y, z' 

loop_
_atom_site_label
_atom_site_fract_x
_atom_site_fract_y
_atom_site_fract_z
_atom_site_type_symbol
N0      0.0954  0.64746  0.17796     N
H1     0.21977  0.64842  0.20279     H
C2       0.984  0.69677  0.15031     C
C3      0.8576  0.49414   0.1506     C
H4     0.88028  0.45381  0.16112     H
C5      0.6669  0.50962  0.10863     C
C6      0.5029  0.46283  0.08246     C
C7      0.7839  0.61259  0.11757     C
C8      0.6877  0.77963  0.08533     C
C9      0.5269  0.82423  0.05154     C
C10     0.9752  0.59607   0.1594     C
C11     0.0144  0.53563  0.17732     C
C12     0.6405  0.71809  0.08023     C
H13    0.51116  0.70462  0.05576     H
O14     0.9181  0.45128  0.35996     O
C15     0.2051  0.51598  0.22413     C
C16     0.1909  0.37694  0.03314     C
C17     0.8844  0.79834  0.12276     C
H18    0.91566  0.83934   0.1253     H
C19     0.2324  0.78199  0.19749     C
C20     0.6306  0.56949  0.09215     C
H21    0.50525  0.58073  0.06444     H
C22     0.0346  0.75878  0.15623     C
C23      0.789  0.67737  0.11212     C
C24     0.2859  0.47805  0.06597     C
H25    0.24461  0.51716  0.07183     H
C26     0.4063  0.36122   0.0504     C
H27    0.44683   0.3218  0.04546     H
O28     0.8408  0.34178  0.98637     O
C29     0.5617  0.40377  0.07494     C
H30    0.70553  0.39275   0.0864     H
C31     0.5852   0.5131  0.27038     C
H32    0.72325  0.52526  0.27139     H
C33      0.412   0.5337  0.22624     C
H34    0.43491  0.55947  0.19799     H
C35     0.5547  0.47482  0.31276     C
C36     0.2217  0.90341  0.98658     C
O37     0.9602  0.83407  0.33257     O
C38     0.2173  0.83018  0.23397     C
H39    0.08417   0.8471  0.23167     H
C40     0.5951  0.82842  0.27761     C
C41     0.3083  0.81124     0.04     C
H42    0.26419   0.7758  0.05395     H
C43     0.1314  0.43567  0.04098     C
H44    0.98745   0.4466  0.02942     H
C45     0.4321  0.75802  0.20181     C
H46    0.44476  0.72617  0.17776     H
C47     0.1583  0.85093  0.00801     C
H48    0.01309  0.84231  0.00076     H
C49     0.6146  0.78043  0.24127     C
H50    0.74835  0.76386  0.24365     H
C51     0.3982  0.85265  0.27316     C
H52    0.38583  0.88478  0.29691     H
C53     0.1766  0.47793  0.26746     C
H54    0.03917  0.46567  0.26702     H
C55     0.3515  0.45812  0.31132     C
H56    0.32966  0.43304  0.34019     H
C57     0.5897  0.87658  0.03099     C
H58    0.73469  0.88602  0.03927     H
O59     0.8725  0.94247  0.94546     O
C60     0.7828   0.8536  0.32073     C
H61    0.76053  0.88794  0.34054     H
C62     0.7338  0.44877  0.35791     C
H63    0.69916  0.42827  0.38787     H
C64     0.4374  0.91558  0.99782     C
H65     0.4815  0.95047  0.98294     H
C66     0.0279  0.33142  0.00609     C
H67    0.07372  0.29193  0.00424     H
C68     0.0622  0.94672   0.9533     C
H69    0.11267  0.97978   0.9372     H
O70     0.4052   0.6584   0.2917     O
C71      0.391   0.6703   0.3363     C
C72      0.567   0.6933   0.3821     C
H73    0.62231  0.66177  0.40965     H
H74    0.51741  0.72601  0.40126     H
H75    0.67777  0.70742  0.36608     H
C76      0.188   0.6821   0.3399     C
H77    0.09865  0.69394  0.30243     H
H78     0.1929  0.71411  0.36714     H
H79    0.12957  0.64653  0.35253     H
loop_
_geom_bond_atom_site_label_1
_geom_bond_atom_site_label_2
_geom_bond_distance
_geom_bond_site_symmetry_2
_ccdc_geom_bond_type
H1    O70    2.14962       .     S
O70   H1     2.14962       .     S
N0    H1     0.85993       .     S
H1    N0     0.85993       .     S
N0    C2     1.37545   1_455     S
C2    N0     1.37545   1_655     S
N0    C10    1.38295   1_455     S
C10   N0     1.38295   1_655     S
C2    C22    1.41180   1_655     S
C22   C2     1.41180   1_455     S
C2    C23    1.40766       .     S
C23   C2     1.40766       .     S
C3    H4     0.92985       .     S
H4    C3     0.92985       .     S
C3    C5     1.40376       .     S
C5    C3     1.40376       .     S
C3    C11    1.38941   1_655     S
C11   C3     1.38941   1_455     S
C5    C6     1.49409       .     S
C6    C5     1.49409       .     S
C5    C20    1.38667       .     S
C20   C5     1.38667       .     S
C6    C24    1.39462       .     S
C24   C6     1.39462       .     S
C6    C29    1.39003       .     S
C29   C6     1.39003       .     S
C7    C10    1.41066       .     S
C10   C7     1.41066       .     S
C7    C20    1.39215       .     S
C20   C7     1.39215       .     S
C7    C23    1.44375       .     S
C23   C7     1.44375       .     S
C8    C9     1.50137       .     S
C9    C8     1.50137       .     S
C8    C12    1.39660       .     S
C12   C8     1.39660       .     S
C8    C17    1.40388       .     S
C17   C8     1.40388       .     S
C9    C41    1.39828       .     S
C41   C9     1.39828       .     S
C9    C57    1.36730       .     S
C57   C9     1.36730       .     S
C10   C11    1.40900   1_655     S
C11   C10    1.40900   1_455     S
C11   C15    1.48660       .     S
C15   C11    1.48660       .     S
C12   H13    0.92980       .     S
H13   C12    0.92980       .     S
C12   C23    1.38552       .     S
C23   C12    1.38552       .     S
O14   C62    1.18521       .     S
C62   O14    1.18521       .     S
C15   C33    1.38702       .     S
C33   C15    1.38702       .     S
C15   C53    1.39118       .     S
C53   C15    1.39118       .     S
C16   C26    1.38789       .     S
C26   C16    1.38789       .     S
C16   C43    1.38618       .     S
C43   C16    1.38618       .     S
C16   C66    1.47569       .     S
C66   C16    1.47569       .     S
C17   H18    0.92990       .     S
H18   C17    0.92990       .     S
C17   C22    1.38904   1_655     S
C22   C17    1.38904   1_455     S
C19   C22    1.47858       .     S
C22   C19    1.47858       .     S
C19   C38    1.40227       .     S
C38   C19    1.40227       .     S
C19   C45    1.37830       .     S
C45   C19    1.37830       .     S
C20   H21    0.93015       .     S
H21   C20    0.93015       .     S
C24   H25    0.93002       .     S
H25   C24    0.93002       .     S
C24   C43    1.38348       .     S
C43   C24    1.38348       .     S
C26   H27    0.93002       .     S
H27   C26    0.93002       .     S
C26   C29    1.38714       .     S
C29   C26    1.38714       .     S
O28   C66    1.19672   1_656     S
C66   O28    1.19672   1_454     S
C29   H30    0.92970       .     S
H30   C29    0.92970       .     S
C31   H32    0.92988       .     S
H32   C31    0.92988       .     S
C31   C33    1.38987       .     S
C33   C31    1.38987       .     S
C31   C35    1.38097       .     S
C35   C31    1.38097       .     S
C33   H34    0.92995       .     S
H34   C33    0.92995       .     S
C35   C55    1.36152       .     S
C55   C35    1.36152       .     S
C35   C62    1.46902       .     S
C62   C35    1.46902       .     S
C36   C47    1.38080   1_556     S
C47   C36    1.38080   1_554     S
C36   C64    1.37715       .     S
C64   C36    1.37715       .     S
C36   C68    1.47376       .     S
C68   C36    1.47376       .     S
O37   C60    1.18855       .     S
C60   O37    1.18855       .     S
C38   H39    0.92977       .     S
H39   C38    0.92977       .     S
C38   C51    1.37729       .     S
C51   C38    1.37729       .     S
C40   C49    1.40398       .     S
C49   C40    1.40398       .     S
C40   C51    1.36328       .     S
C51   C40    1.36328       .     S
C40   C60    1.47147       .     S
C60   C40    1.47147       .     S
C41   H42    0.93023       .     S
H42   C41    0.93023       .     S
C41   C47    1.37696       .     S
C47   C41    1.37696       .     S
C43   H44    0.92994   1_455     S
H44   C43    0.92994   1_655     S
C45   H46    0.93025       .     S
H46   C45    0.93025       .     S
C45   C49    1.38658       .     S
C49   C45    1.38658       .     S
C47   H48    0.92970       .     S
H48   C47    0.92970       .     S
C49   H50    0.92997       .     S
H50   C49    0.92997       .     S
C51   H52    0.92989       .     S
H52   C51    0.92989       .     S
C53   H54    0.93009       .     S
H54   C53    0.93009       .     S
C53   C55    1.38728       .     S
C55   C53    1.38728       .     S
C55   H56    0.92978       .     S
H56   C55    0.92978       .     S
C57   H58    0.93022       .     S
H58   C57    0.93022       .     S
C57   C64    1.38597   1_554     S
C64   C57    1.38597   1_556     S
O59   C68    1.19677   1_655     S
C68   O59    1.19677   1_455     S
C60   H61    0.93022       .     S
H61   C60    0.93022       .     S
C62   H63    0.92986       .     S
H63   C62    0.92986       .     S
C64   H65    0.93019       .     S
H65   C64    0.93019       .     S
C66   H67    0.92994       .     S
H67   C66    0.92994       .     S
C68   H69    0.92998       .     S
H69   C68    0.92998       .     S
O70   C71    1.13107       .     S
C71   O70    1.13107       .     S
C71   C72    1.44025       .     S
C72   C71    1.44025       .     S
C71   C76    1.36998       .     S
C76   C71    1.36998       .     S
C72   H73    0.96063       .     S
H73   C72    0.96063       .     S
C72   H74    0.96123       .     S
H74   C72    0.96123       .     S
C72   H75    0.95783       .     S
H75   C72    0.95783       .     S
C76   H77    0.96104       .     S
H77   C76    0.96104       .     S
C76   H78    0.95962       .     S
H78   C76    0.95962       .     S
C76   H79    0.96032       .     S
H79   C76    0.96032       .     S
O70   H1     2.14962       .     S
H1    O70    2.14962       .     S
H1    N0     0.85993       .     S
N0    H1     0.85993       .     S
C2    N0     1.37545   1_655     S
N0    C2     1.37545   1_455     S
C10   N0     1.38295   1_655     S
N0    C10    1.38295   1_455     S
C22   C2     1.41180   1_455     S
C2    C22    1.41180   1_655     S
C23   C2     1.40766       .     S
C2    C23    1.40766       .     S
H4    C3     0.92985       .     S
C3    H4     0.92985       .     S
C5    C3     1.40376       .     S
C3    C5     1.40376       .     S
C11   C3     1.38941   1_455     S
C3    C11    1.38941   1_655     S
C6    C5     1.49409       .     S
C5    C6     1.49409       .     S
C20   C5     1.38667       .     S
C5    C20    1.38667       .     S
C24   C6     1.39462       .     S
C6    C24    1.39462       .     S
C29   C6     1.39003       .     S
C6    C29    1.39003       .     S
C10   C7     1.41066       .     S
C7    C10    1.41066       .     S
C20   C7     1.39215       .     S
C7    C20    1.39215       .     S
C23   C7     1.44375       .     S
C7    C23    1.44375       .     S
C9    C8     1.50137       .     S
C8    C9     1.50137       .     S
C12   C8     1.39660       .     S
C8    C12    1.39660       .     S
C17   C8     1.40388       .     S
C8    C17    1.40388       .     S
C41   C9     1.39828       .     S
C9    C41    1.39828       .     S
C57   C9     1.36730       .     S
C9    C57    1.36730       .     S
C11   C10    1.40900   1_455     S
C10   C11    1.40900   1_655     S
C15   C11    1.48660       .     S
C11   C15    1.48660       .     S
H13   C12    0.92980       .     S
C12   H13    0.92980       .     S
C23   C12    1.38552       .     S
C12   C23    1.38552       .     S
C62   O14    1.18521       .     S
O14   C62    1.18521       .     S
C33   C15    1.38702       .     S
C15   C33    1.38702       .     S
C53   C15    1.39118       .     S
C15   C53    1.39118       .     S
C26   C16    1.38789       .     S
C16   C26    1.38789       .     S
C43   C16    1.38618       .     S
C16   C43    1.38618       .     S
C66   C16    1.47569       .     S
C16   C66    1.47569       .     S
H18   C17    0.92990       .     S
C17   H18    0.92990       .     S
C22   C17    1.38904   1_455     S
C17   C22    1.38904   1_655     S
C22   C19    1.47858       .     S
C19   C22    1.47858       .     S
C38   C19    1.40227       .     S
C19   C38    1.40227       .     S
C45   C19    1.37830       .     S
C19   C45    1.37830       .     S
H21   C20    0.93015       .     S
C20   H21    0.93015       .     S
H25   C24    0.93002       .     S
C24   H25    0.93002       .     S
C43   C24    1.38348       .     S
C24   C43    1.38348       .     S
H27   C26    0.93002       .     S
C26   H27    0.93002       .     S
C29   C26    1.38714       .     S
C26   C29    1.38714       .     S
C66   O28    1.19672   1_454     S
O28   C66    1.19672   1_656     S
H30   C29    0.92970       .     S
C29   H30    0.92970       .     S
H32   C31    0.92988       .     S
C31   H32    0.92988       .     S
C33   C31    1.38987       .     S
C31   C33    1.38987       .     S
C35   C31    1.38097       .     S
C31   C35    1.38097       .     S
H34   C33    0.92995       .     S
C33   H34    0.92995       .     S
C55   C35    1.36152       .     S
C35   C55    1.36152       .     S
C62   C35    1.46902       .     S
C35   C62    1.46902       .     S
C47   C36    1.38080   1_554     S
C36   C47    1.38080   1_556     S
C64   C36    1.37715       .     S
C36   C64    1.37715       .     S
C68   C36    1.47376       .     S
C36   C68    1.47376       .     S
C60   O37    1.18855       .     S
O37   C60    1.18855       .     S
H39   C38    0.92977       .     S
C38   H39    0.92977       .     S
C51   C38    1.37729       .     S
C38   C51    1.37729       .     S
C49   C40    1.40398       .     S
C40   C49    1.40398       .     S
C51   C40    1.36328       .     S
C40   C51    1.36328       .     S
C60   C40    1.47147       .     S
C40   C60    1.47147       .     S
H42   C41    0.93023       .     S
C41   H42    0.93023       .     S
C47   C41    1.37696       .     S
C41   C47    1.37696       .     S
H44   C43    0.92994   1_655     S
C43   H44    0.92994   1_455     S
H46   C45    0.93025       .     S
C45   H46    0.93025       .     S
C49   C45    1.38658       .     S
C45   C49    1.38658       .     S
H48   C47    0.92970       .     S
C47   H48    0.92970       .     S
H50   C49    0.92997       .     S
C49   H50    0.92997       .     S
H52   C51    0.92989       .     S
C51   H52    0.92989       .     S
H54   C53    0.93009       .     S
C53   H54    0.93009       .     S
C55   C53    1.38728       .     S
C53   C55    1.38728       .     S
H56   C55    0.92978       .     S
C55   H56    0.92978       .     S
H58   C57    0.93022       .     S
C57   H58    0.93022       .     S
C64   C57    1.38597   1_556     S
C57   C64    1.38597   1_554     S
C68   O59    1.19677   1_455     S
O59   C68    1.19677   1_655     S
H61   C60    0.93022       .     S
C60   H61    0.93022       .     S
H63   C62    0.92986       .     S
C62   H63    0.92986       .     S
H65   C64    0.93019       .     S
C64   H65    0.93019       .     S
H67   C66    0.92994       .     S
C66   H67    0.92994       .     S
H69   C68    0.92998       .     S
C68   H69    0.92998       .     S
C71   O70    1.13107       .     S
O70   C71    1.13107       .     S
C72   C71    1.44025       .     S
C71   C72    1.44025       .     S
C76   C71    1.36998       .     S
C71   C76    1.36998       .     S
H73   C72    0.96063       .     S
C72   H73    0.96063       .     S
H74   C72    0.96123       .     S
C72   H74    0.96123       .     S
H75   C72    0.95783       .     S
C72   H75    0.95783       .     S
H77   C76    0.96104       .     S
C76   H77    0.96104       .     S
H78   C76    0.95962       .     S
C76   H78    0.95962       .     S
H79   C76    0.96032       .     S
C76   H79    0.96032       .     S
