data_I
_chemical_name_common  '/data/user2/wty/HOF/MOFDiff/mofdiff/data/test/201-hof-fju-2dmso'
_cell_length_a  6.44200
_cell_length_b 22.24190
_cell_length_c 24.18180
_cell_angle_alpha 90.00000
_cell_angle_beta  104.71600
_cell_angle_gamma 90.00000
_space_group_name_H-M_alt      'P 1'


loop_
_space_group_symop_operation_xyz
  'x, y, z' 

loop_
_atom_site_label
_atom_site_fract_x
_atom_site_fract_y
_atom_site_fract_z
_atom_site_type_symbol
C0      0.8704   0.1479   0.8247     C
H1     0.93502   0.1142  0.84454     H
N2      0.2616  0.35341  0.67964     N
H3     0.18727  0.35262  0.70457     H
O4      0.7172   0.1657  0.83692     O
O5      0.7858  0.54503  0.85883     O
C6      0.9739  0.17236  0.78164     C
C7      0.1634  0.14845  0.77662     C
H8      0.2245  0.11659  0.80006     H
O9      0.1256  0.65908  0.48524     O
O10      0.029   0.0605   0.4481     O
C11     0.2652  0.17064  0.73755     C
H12    0.39432  0.15386  0.73469     H
C13      0.174  0.21902  0.70161     C
C14     0.9826  0.24278  0.70701     C
H15    0.92159  0.27495    0.684     H
C16     0.8794   0.2197  0.74603     C
H17    0.74843  0.23545  0.74853     H
C18     0.9624   0.5516   0.8543     C
H19    0.05377  0.57495  0.88208     H
C20     0.0528  0.52629   0.8088     C
C21     0.9398  0.48746   0.7675     C
H22    0.80278  0.47518  0.76851     H
C23     0.0282  0.46652  0.72447     C
H24     0.9514  0.43976  0.69732     H
C25     0.2319  0.48546  0.72179     C
C26     0.3421  0.52525  0.76343     C
H27    0.47696  0.53908  0.76209     H
C28      0.253   0.5445   0.8069     C
H29    0.33065  0.57013  0.83506     H
C30     0.9755  0.66841   0.5041     C
H31     0.9233  0.70756  0.50185     H
C32     0.8651  0.62311  0.53074     C
C33     0.6821  0.63824  0.54825     C
H34    0.62997  0.67739  0.54326     H
C35     0.5772  0.59606  0.57287     C
H36    0.45509  0.60686  0.58436     H
C37     0.6534  0.53729  0.58063     C
C38     0.8404   0.5227  0.56418     C
H39    0.89593  0.48396  0.57019     H
C40     0.9429  0.56511  0.53919     C
H41    0.06574   0.5546   0.5279     H
C42     0.8578   0.0556    0.458     C
H43    0.77477  0.02252  0.44272     H
C44     0.7679  0.09747   0.4924     C
C45     0.8739  0.15055  0.51267     C
H46    0.00436  0.15948  0.50474     H
C47     0.7868  0.18987  0.54433     C
H48    0.85787  0.22552  0.55739     H
C49     0.5923  0.17667  0.55704     C
C50     0.4891  0.12411   0.5372     C
H51    0.36022  0.11452  0.54575     H
C52      0.577  0.08509   0.5044     C
H53    0.50411  0.04997  0.49034     H
C54      0.288  0.24224  0.66024     C
C55     0.3766  0.20266  0.62797     C
H56    0.35638  0.16165    0.632     H
C57     0.4948  0.22128  0.58975     C
C58     0.5267  0.28228   0.5834     C
H59    0.60615  0.29558   0.5586     H
C60     0.4393  0.32328  0.61434     C
C61     0.4515  0.38799  0.61864     C
C62     0.5497  0.43082  0.59221     C
H63    0.62009  0.41943  0.56472     H
C64      0.542  0.49073  0.60712     C
C65     0.4333  0.50658  0.64893     C
H66    0.42899  0.54689  0.65881     H
C67     0.3328  0.46481  0.67593     C
C68     0.3411  0.40469  0.65961     C
C69     0.3215  0.30381  0.65298     C
S70     0.3504  0.35609  0.84701     S
O71     0.2001   0.3459   0.7916     O
C72      0.539   0.3283   0.8266     C
H73    0.48394  0.30023  0.79624     H
H74     0.6344  0.30775  0.85792     H
H75    0.61615   0.3596  0.81302     H
C76      0.325   0.2971   0.8884     C
H77    0.17747  0.29279  0.88913     H
H78    0.41151   0.3036  0.92659     H
H79    0.37185  0.26113  0.87319     H
loop_
_geom_bond_atom_site_label_1
_geom_bond_atom_site_label_2
_geom_bond_distance
_geom_bond_site_symmetry_2
_ccdc_geom_bond_type
H3    O71    2.09043       .     S
O71   H3     2.09043       .     S
C0    H1     0.92942       .     S
H1    C0     0.92942       .     S
C0    O4     1.16886       .     S
O4    C0     1.16886       .     S
C0    C6     1.47563       .     S
C6    C0     1.47563       .     S
N2    H3     0.86005       .     S
H3    N2     0.86005       .     S
N2    C68    1.38701       .     S
C68   N2     1.38701       .     S
N2    C69    1.38129       .     S
C69   N2     1.38129       .     S
O5    C18    1.17938       .     S
C18   O5     1.17938       .     S
C6    C7     1.36495   1_655     S
C7    C6     1.36495   1_455     S
C6    C16    1.39802       .     S
C16   C6     1.39802       .     S
C7    H8     0.93006       .     S
H8    C7     0.93006       .     S
C7    C11    1.37152       .     S
C11   C7     1.37152       .     S
O9    C30    1.18747   1_455     S
C30   O9     1.18747   1_655     S
O10   C42    1.19149   1_455     S
C42   O10    1.19149   1_655     S
C11   H12    0.93015       .     S
H12   C11    0.93015       .     S
C11   C13    1.41386       .     S
C13   C11    1.41386       .     S
C13   C14    1.37783   1_455     S
C14   C13    1.37783   1_655     S
C13   C54    1.47652       .     S
C54   C13    1.47652       .     S
C14   H15    0.93002       .     S
H15   C14    0.93002       .     S
C14   C16    1.38367       .     S
C16   C14    1.38367       .     S
C16   H17    0.92959       .     S
H17   C16    0.92959       .     S
C18   H19    0.93090   1_655     S
H19   C18    0.93090   1_455     S
C18   C20    1.48060   1_655     S
C20   C18    1.48060   1_455     S
C20   C21    1.37980   1_455     S
C21   C20    1.37980   1_655     S
C20   C28    1.36365       .     S
C28   C20    1.36365       .     S
C21   H22    0.93020       .     S
H22   C21    0.93020       .     S
C21   C23    1.38744   1_655     S
C23   C21    1.38744   1_455     S
C23   H24    0.93008   1_455     S
H24   C23    0.93008   1_655     S
C23   C25    1.39529       .     S
C25   C23    1.39529       .     S
C25   C26    1.39210       .     S
C26   C25    1.39210       .     S
C25   C67    1.49315       .     S
C67   C25    1.49315       .     S
C26   H27    0.92991       .     S
H27   C26    0.92991       .     S
C26   C28    1.38719       .     S
C28   C26    1.38719       .     S
C28   H29    0.93050       .     S
H29   C28    0.93050       .     S
C30   H31    0.93005       .     S
H31   C30    0.93005       .     S
C30   C32    1.47266       .     S
C32   C30    1.47266       .     S
C32   C33    1.39137       .     S
C33   C32    1.39137       .     S
C32   C40    1.38025       .     S
C40   C32    1.38025       .     S
C33   H34    0.93005       .     S
H34   C33    0.93005       .     S
C33   C35    1.37683       .     S
C35   C33    1.37683       .     S
C35   H36    0.92991       .     S
H36   C35    0.92991       .     S
C35   C37    1.39213       .     S
C37   C35    1.39213       .     S
C37   C38    1.39935       .     S
C38   C37    1.39935       .     S
C37   C64    1.49376       .     S
C64   C37    1.49376       .     S
C38   H39    0.93012       .     S
H39   C38    0.93012       .     S
C38   C40    1.37611       .     S
C40   C38    1.37611       .     S
C40   H41    0.93014   1_655     S
H41   C40    0.93014   1_455     S
C42   H43    0.92928       .     S
H43   C42    0.92928       .     S
C42   C44    1.46267       .     S
C44   C42    1.46267       .     S
C44   C45    1.38936       .     S
C45   C44    1.38936       .     S
C44   C52    1.36150       .     S
C52   C44    1.36150       .     S
C45   H46    0.92974   1_655     S
H46   C45    0.92974   1_455     S
C45   C47    1.37261       .     S
C47   C45    1.37261       .     S
C47   H48    0.92985       .     S
H48   C47    0.92985       .     S
C47   C49    1.39508       .     S
C49   C47    1.39508       .     S
C49   C50    1.36994       .     S
C50   C49    1.36994       .     S
C49   C57    1.50235       .     S
C57   C49    1.50235       .     S
C50   H51    0.92993       .     S
H51   C50    0.92993       .     S
C50   C52    1.38966       .     S
C52   C50    1.38966       .     S
C52   H53    0.93013       .     S
H53   C52    0.93013       .     S
C54   C55    1.39140       .     S
C55   C54    1.39140       .     S
C54   C69    1.40428       .     S
C69   C54    1.40428       .     S
C55   H56    0.93001       .     S
H56   C55    0.93001       .     S
C55   C57    1.40109       .     S
C57   C55    1.40109       .     S
C57   C58    1.38659       .     S
C58   C57    1.38659       .     S
C58   H59    0.93008       .     S
H59   C58    0.93008       .     S
C58   C60    1.38651       .     S
C60   C58    1.38651       .     S
C60   C61    1.44373       .     S
C61   C60    1.44373       .     S
C60   C69    1.41306       .     S
C69   C60    1.41306       .     S
C61   C62    1.38621       .     S
C62   C61    1.38621       .     S
C61   C68    1.40829       .     S
C68   C61    1.40829       .     S
C62   H63    0.92997       .     S
H63   C62    0.92997       .     S
C62   C64    1.38461       .     S
C64   C62    1.38461       .     S
C64   C65    1.41298       .     S
C65   C64    1.41298       .     S
C65   H66    0.93009       .     S
H66   C65    0.93009       .     S
C65   C67    1.38684       .     S
C67   C65    1.38684       .     S
C67   C68    1.39907       .     S
C68   C67    1.39907       .     S
S70   O71    1.45777       .     S
O71   S70    1.45777       .     S
S70   C72    1.55127       .     S
C72   S70    1.55127       .     S
S70   C76    1.68322       .     S
C76   S70    1.68322       .     S
C72   H73    0.96036       .     S
H73   C72    0.96036       .     S
C72   H74    0.96112       .     S
H74   C72    0.96112       .     S
C72   H75    0.96043       .     S
H75   C72    0.96043       .     S
C76   H77    0.95982       .     S
H77   C76    0.95982       .     S
C76   H78    0.96066       .     S
H78   C76    0.96066       .     S
C76   H79    0.96064       .     S
H79   C76    0.96064       .     S
O71   H3     2.09043       .     S
H3    O71    2.09043       .     S
H1    C0     0.92942       .     S
C0    H1     0.92942       .     S
O4    C0     1.16886       .     S
C0    O4     1.16886       .     S
C6    C0     1.47563       .     S
C0    C6     1.47563       .     S
H3    N2     0.86005       .     S
N2    H3     0.86005       .     S
C68   N2     1.38701       .     S
N2    C68    1.38701       .     S
C69   N2     1.38129       .     S
N2    C69    1.38129       .     S
C18   O5     1.17938       .     S
O5    C18    1.17938       .     S
C7    C6     1.36495   1_455     S
C6    C7     1.36495   1_655     S
C16   C6     1.39802       .     S
C6    C16    1.39802       .     S
H8    C7     0.93006       .     S
C7    H8     0.93006       .     S
C11   C7     1.37152       .     S
C7    C11    1.37152       .     S
C30   O9     1.18747   1_655     S
O9    C30    1.18747   1_455     S
C42   O10    1.19149   1_655     S
O10   C42    1.19149   1_455     S
H12   C11    0.93015       .     S
C11   H12    0.93015       .     S
C13   C11    1.41386       .     S
C11   C13    1.41386       .     S
C14   C13    1.37783   1_655     S
C13   C14    1.37783   1_455     S
C54   C13    1.47652       .     S
C13   C54    1.47652       .     S
H15   C14    0.93002       .     S
C14   H15    0.93002       .     S
C16   C14    1.38367       .     S
C14   C16    1.38367       .     S
H17   C16    0.92959       .     S
C16   H17    0.92959       .     S
H19   C18    0.93090   1_455     S
C18   H19    0.93090   1_655     S
C20   C18    1.48060   1_455     S
C18   C20    1.48060   1_655     S
C21   C20    1.37980   1_655     S
C20   C21    1.37980   1_455     S
C28   C20    1.36365       .     S
C20   C28    1.36365       .     S
H22   C21    0.93020       .     S
C21   H22    0.93020       .     S
C23   C21    1.38744   1_455     S
C21   C23    1.38744   1_655     S
H24   C23    0.93008   1_655     S
C23   H24    0.93008   1_455     S
C25   C23    1.39529       .     S
C23   C25    1.39529       .     S
C26   C25    1.39210       .     S
C25   C26    1.39210       .     S
C67   C25    1.49315       .     S
C25   C67    1.49315       .     S
H27   C26    0.92991       .     S
C26   H27    0.92991       .     S
C28   C26    1.38719       .     S
C26   C28    1.38719       .     S
H29   C28    0.93050       .     S
C28   H29    0.93050       .     S
H31   C30    0.93005       .     S
C30   H31    0.93005       .     S
C32   C30    1.47266       .     S
C30   C32    1.47266       .     S
C33   C32    1.39137       .     S
C32   C33    1.39137       .     S
C40   C32    1.38025       .     S
C32   C40    1.38025       .     S
H34   C33    0.93005       .     S
C33   H34    0.93005       .     S
C35   C33    1.37683       .     S
C33   C35    1.37683       .     S
H36   C35    0.92991       .     S
C35   H36    0.92991       .     S
C37   C35    1.39213       .     S
C35   C37    1.39213       .     S
C38   C37    1.39935       .     S
C37   C38    1.39935       .     S
C64   C37    1.49376       .     S
C37   C64    1.49376       .     S
H39   C38    0.93012       .     S
C38   H39    0.93012       .     S
C40   C38    1.37611       .     S
C38   C40    1.37611       .     S
H41   C40    0.93014   1_455     S
C40   H41    0.93014   1_655     S
H43   C42    0.92928       .     S
C42   H43    0.92928       .     S
C44   C42    1.46267       .     S
C42   C44    1.46267       .     S
C45   C44    1.38936       .     S
C44   C45    1.38936       .     S
C52   C44    1.36150       .     S
C44   C52    1.36150       .     S
H46   C45    0.92974   1_455     S
C45   H46    0.92974   1_655     S
C47   C45    1.37261       .     S
C45   C47    1.37261       .     S
H48   C47    0.92985       .     S
C47   H48    0.92985       .     S
C49   C47    1.39508       .     S
C47   C49    1.39508       .     S
C50   C49    1.36994       .     S
C49   C50    1.36994       .     S
C57   C49    1.50235       .     S
C49   C57    1.50235       .     S
H51   C50    0.92993       .     S
C50   H51    0.92993       .     S
C52   C50    1.38966       .     S
C50   C52    1.38966       .     S
H53   C52    0.93013       .     S
C52   H53    0.93013       .     S
C55   C54    1.39140       .     S
C54   C55    1.39140       .     S
C69   C54    1.40428       .     S
C54   C69    1.40428       .     S
H56   C55    0.93001       .     S
C55   H56    0.93001       .     S
C57   C55    1.40109       .     S
C55   C57    1.40109       .     S
C58   C57    1.38659       .     S
C57   C58    1.38659       .     S
H59   C58    0.93008       .     S
C58   H59    0.93008       .     S
C60   C58    1.38651       .     S
C58   C60    1.38651       .     S
C61   C60    1.44373       .     S
C60   C61    1.44373       .     S
C69   C60    1.41306       .     S
C60   C69    1.41306       .     S
C62   C61    1.38621       .     S
C61   C62    1.38621       .     S
C68   C61    1.40829       .     S
C61   C68    1.40829       .     S
H63   C62    0.92997       .     S
C62   H63    0.92997       .     S
C64   C62    1.38461       .     S
C62   C64    1.38461       .     S
C65   C64    1.41298       .     S
C64   C65    1.41298       .     S
H66   C65    0.93009       .     S
C65   H66    0.93009       .     S
C67   C65    1.38684       .     S
C65   C67    1.38684       .     S
C68   C67    1.39907       .     S
C67   C68    1.39907       .     S
O71   S70    1.45777       .     S
S70   O71    1.45777       .     S
C72   S70    1.55127       .     S
S70   C72    1.55127       .     S
C76   S70    1.68322       .     S
S70   C76    1.68322       .     S
H73   C72    0.96036       .     S
C72   H73    0.96036       .     S
H74   C72    0.96112       .     S
C72   H74    0.96112       .     S
H75   C72    0.96043       .     S
C72   H75    0.96043       .     S
H77   C76    0.95982       .     S
C76   H77    0.95982       .     S
H78   C76    0.96066       .     S
C76   H78    0.96066       .     S
H79   C76    0.96064       .     S
C76   H79    0.96064       .     S
