data_I
_chemical_name_common  '/data/user2/wty/HOF/MOFDiff/mofdiff/data/test/2031l'
_cell_length_a  9.83610
_cell_length_b 12.27850
_cell_length_c 16.56650
_cell_angle_alpha 98.08000
_cell_angle_beta  106.03000
_cell_angle_gamma 104.89000
_space_group_name_H-M_alt      'P 1'


loop_
_space_group_symop_operation_xyz
  'x, y, z' 

loop_
_atom_site_label
_atom_site_fract_x
_atom_site_fract_y
_atom_site_fract_z
_atom_site_type_symbol
S0     0.77468  0.37539  0.82629     S
S1     0.37879  0.58467  0.67285     S
S2      0.6475  0.98157  0.13281     S
S3      0.5837  0.91731  0.37374     S
O4      0.0679   0.4021    0.318     O
O5      0.8336   0.6547   0.5428     O
O6      0.8872   0.4613   0.6437     O
O7      0.2914   0.2642   0.9548     O
O8      0.0273   0.1683   0.3782     O
N9      0.6749   0.4311     0.04     N
N10      0.832   0.2019   0.1904     N
H11     0.8761   0.2615   0.2348     H
O12     0.9982   0.6397   0.1807     O
O13     0.2745   0.6045   0.1251     O
N14     0.1692   0.4073   0.4591     N
H15     0.2503   0.4306   0.5044     H
N16     0.4413   0.5191   0.4544     N
O17     0.2536   0.4434   0.8333     O
N18     0.7318    0.117   0.2843     N
H19     0.6718   0.0591   0.2959     H
N20     0.9514   0.5602   0.0411     N
H21     0.8993   0.5006   0.9975     H
N22      0.663   0.5683   0.6014     N
H23       0.57    0.527   0.5913     H
N24     0.8139   0.2162   0.3488     N
H25     0.7713   0.2684   0.3607     H
N26      0.293    0.784    0.313     N
H27     0.2131   0.7546    0.267     H
N28     0.1532    0.666   0.6044     N
H29     0.0701   0.6768   0.6084     H
N30     0.4556   0.3192   0.8853     N
H31     0.5491   0.3489   0.8889     H
N32     0.9617   0.3124   0.7596     N
H33     0.9165   0.3337   0.7136     H
N34     0.0361   0.6336   0.7296     N
H35     0.0441   0.7019   0.7587     H
N36      0.985   0.2789   0.8959     N
H37     0.0656   0.2613   0.8941     H
N38     0.0845   0.2697   0.7593     N
H39     0.0698   0.1984   0.7326     H
C40     0.3283   0.4969   0.3829     C
C41     0.1754   0.4323   0.3827     C
C42     0.3463   0.5274   0.3066     C
H43     0.2627   0.5087   0.2559     H
C44     0.7426   0.1078   0.2031     C
N45      0.163   0.6032   0.7293     N
H46     0.2043    0.572   0.7704     H
N47     0.2709   0.7919   0.1477     N
H48     0.2219   0.8399   0.1309     H
C49     0.9354   0.2625   0.9677     C
C50     0.7014   0.6047   0.5367     C
N51     0.4052   0.8348   0.2141     N
H52     0.4877    0.859   0.2017     H
C53     0.5452    0.364   0.0421     C
C54     0.5211   0.3407   0.1179     C
H55     0.4287   0.2899   0.1159     H
C56     0.6303   0.3911   0.1941     C
H57     0.6154   0.3778   0.2466     H
C58     0.8997   0.5564   0.6842     C
C59     0.2131   0.6797    0.108     C
C60     0.1242   0.7052   0.3835     C
H61     0.0486   0.6891   0.3294     H
C62     0.8636   0.2159    0.112     C
C63     0.5779   0.5771   0.4548     C
C64     0.7559   0.1753   0.0315     C
H65     0.6569   0.1323   0.0253     H
C66     0.9578   0.2338   0.3933     C
C67     0.9209   0.5678    0.115     C
C68     0.9132   0.3209   0.8289     C
C69     0.7784   0.4787    0.115     C
C70     0.4197   0.3122   0.9578     C
C71     0.7952   0.1985   0.9599     C
H72     0.7225   0.1689   0.9042     H
C73     0.0309   0.3431   0.4658     C
H74     0.9633   0.3921   0.4612     H
C75     0.0569    0.308   0.5526     C
H76      0.127   0.2632   0.5584     H
H77     0.9622   0.2608   0.5554     H
H78     0.0982   0.3776   0.5996     H
C79     0.2683    0.762   0.3907     C
C80     0.4831   0.5833   0.3067     C
H81     0.4964   0.6037   0.2556     H
C82     0.7645   0.4627   0.1942     C
H83     0.8443   0.4996   0.2465     H
C84     0.0442    0.305   0.0489     C
H85     0.1428   0.3484   0.0547     H
C86     0.2204    0.341   0.8006     C
C87     0.7674   0.5935   0.6881     C
H88     0.7165   0.5425     0.72     H
C89     0.0847     0.67    0.453     C
H90     0.9847   0.6282   0.4456     H
C91     0.0069   0.2831   0.1204     C
H92     0.0793   0.3141   0.1761     H
C93     0.3405   0.7556   0.5423     C
H94     0.4159   0.7744   0.5968     H
C95     0.3784   0.7877   0.4703     C
H96     0.4789   0.8267   0.4766     H
C97     0.0739   0.6532   0.0336     C
H98     0.0432   0.7247   0.0323     H
C99     0.4139   0.8405   0.2964     C
C100    0.2247   0.6216   0.6649     C
C101    0.3393   0.2775   0.8006     C
H102    0.2913   0.1923   0.7906     H
C103    0.6063   0.6118   0.3818     C
H104    0.7037   0.6523   0.3835     H
C105    0.1961   0.6978   0.5338     C
C106       0.1    0.616   0.9491     C
H107    0.1617   0.5645   0.9565     H
H108     0.151   0.6845   0.9324     H
H109    0.0042    0.575   0.9041     H
C110    0.4037   0.3016   0.7299     C
H111    0.4713   0.3811   0.7466     H
H112     0.323    0.292   0.6765     H
H113    0.4587   0.2475   0.7206     H
C114    0.8029   0.7179   0.7373     C
H115    0.8572   0.7715     0.71     H
H116    0.8641   0.7279   0.7972     H
H117    0.7099   0.7341   0.7363     H
loop_
_geom_bond_atom_site_label_1
_geom_bond_atom_site_label_2
_geom_bond_distance
_geom_bond_site_symmetry_2
_ccdc_geom_bond_type
H11   O4     2.15880   1_655     S
O4    H11    2.15880   1_455     S
H11   N24    2.23807       .     S
N24   H11    2.23807       .     S
H15   N16    2.33660       .     S
N16   H15    2.33660       .     S
H19   S3     2.43264   1_545     S
S3    H19    2.43264   1_565     S
H21   S0     2.79223       .     S
S0    H21    2.79223       .     S
H21   N9     2.48091   1_556     S
N9    H21    2.48091   1_554     S
H23   S1     2.77176       .     S
S1    H23    2.77176       .     S
H23   N16    2.24610       .     S
N16   H23    2.24610       .     S
H27   O12    2.17573   1_455     S
O12   H27    2.17573   1_655     S
H27   N47    2.27602       .     S
N47   H27    2.27602       .     S
H29   O5     2.20512   1_455     S
O5    H29    2.20512   1_655     S
H29   N34    2.23691       .     S
N34   H29    2.23691       .     S
H31   S0     2.66455       .     S
S0    H31    2.66455       .     S
H31   N9     2.39856   1_556     S
N9    H31    2.39856   1_554     S
H33   O6     2.10628       .     S
O6    H33    2.10628       .     S
H37   O7     2.15896       .     S
O7    H37    2.15896       .     S
H37   N38    2.30573       .     S
N38   H37    2.30573       .     S
H46   O17    2.09553       .     S
O17   H46    2.09553       .     S
H52   S2     2.50915       .     S
S2    H52    2.50915       .     S
S0    C68    1.65831       .     S
C68   S0     1.65831       .     S
S1    C100   1.66730       .     S
C100  S1     1.66730       .     S
S2    C44    1.66709   1_565     S
C44   S2     1.66709   1_545     S
S3    C99    1.72902       .     S
C99   S3     1.72902       .     S
O4    C41    1.21048       .     S
C41   O4     1.21048       .     S
O5    C50    1.25606       .     S
C50   O5     1.25606       .     S
O6    C58    1.22032       .     S
C58   O6     1.22032       .     S
O7    C70    1.23178       .     S
C70   O7     1.23178       .     S
O8    C66    1.22358   1_455     S
C66   O8     1.22358   1_655     S
N9    C53    1.34161       .     S
C53   N9     1.34161       .     S
N9    C69    1.30892       .     S
C69   N9     1.30892       .     S
N10   H11    0.87981       .     S
H11   N10    0.87981       .     S
N10   C44    1.34195       .     S
C44   N10    1.34195       .     S
N10   C62    1.43921       .     S
C62   N10    1.43921       .     S
O12   C67    1.21244       .     S
C67   O12    1.21244       .     S
O13   C59    1.25027       .     S
C59   O13    1.25027       .     S
N14   H15    0.87927       .     S
H15   N14    0.87927       .     S
N14   C41    1.35725       .     S
C41   N14    1.35725       .     S
N14   C73    1.42867       .     S
C73   N14    1.42867       .     S
N16   C40    1.31877       .     S
C40   N16    1.31877       .     S
N16   C63    1.34703       .     S
C63   N16    1.34703       .     S
O17   C86    1.21687       .     S
C86   O17    1.21687       .     S
N18   H19    0.88094       .     S
H19   N18    0.88094       .     S
N18   N24    1.38909       .     S
N24   N18    1.38909       .     S
N18   C44    1.36966       .     S
C44   N18    1.36966       .     S
N20   H21    0.87984   1_554     S
H21   N20    0.87984   1_556     S
N20   C67    1.33516       .     S
C67   N20    1.33516       .     S
N20   C97    1.47874   1_655     S
C97   N20    1.47874   1_455     S
N22   H23    0.88042       .     S
H23   N22    0.88042       .     S
N22   C50    1.32770       .     S
C50   N22    1.32770       .     S
N22   C87    1.45273       .     S
C87   N22    1.45273       .     S
N24   H25    0.87941       .     S
H25   N24    0.87941       .     S
N24   C66    1.34734       .     S
C66   N24    1.34734       .     S
N26   H27    0.88022       .     S
H27   N26    0.88022       .     S
N26   C79    1.42326       .     S
C79   N26    1.42326       .     S
N26   C99    1.33466       .     S
C99   N26    1.33466       .     S
N28   H29    0.87934       .     S
H29   N28    0.87934       .     S
N28   C100   1.32579       .     S
C100  N28    1.32579       .     S
N28   C105   1.41941       .     S
C105  N28    1.41941       .     S
N30   H31    0.87953       .     S
H31   N30    0.87953       .     S
N30   C70    1.34993       .     S
C70   N30    1.34993       .     S
N30   C101   1.46636       .     S
C101  N30    1.46636       .     S
N32   H33    0.88060       .     S
H33   N32    0.88060       .     S
N32   N38    1.43593   1_655     S
N38   N32    1.43593   1_455     S
N32   C68    1.36047       .     S
C68   N32    1.36047       .     S
N34   H35    0.87942       .     S
H35   N34    0.87942       .     S
N34   N45    1.39273       .     S
N45   N34    1.39273       .     S
N34   C58    1.36122   1_455     S
C58   N34    1.36122   1_655     S
N36   H37    0.88057   1_655     S
H37   N36    0.88057   1_455     S
N36   C49    1.42505       .     S
C49   N36    1.42505       .     S
N36   C68    1.38270       .     S
C68   N36    1.38270       .     S
N38   H39    0.87963       .     S
H39   N38    0.87963       .     S
N38   C86    1.32154       .     S
C86   N38    1.32154       .     S
C40   C41    1.50812       .     S
C41   C40    1.50812       .     S
C40   C42    1.41136       .     S
C42   C40    1.41136       .     S
C42   H43    0.94957       .     S
H43   C42    0.94957       .     S
C42   C80    1.34369       .     S
C80   C42    1.34369       .     S
N45   H46    0.88087       .     S
H46   N45    0.88087       .     S
N45   C100   1.38292       .     S
C100  N45    1.38292       .     S
N47   H48    0.88041       .     S
H48   N47    0.88041       .     S
N47   N51    1.38184       .     S
N51   N47    1.38184       .     S
N47   C59    1.33789       .     S
C59   N47    1.33789       .     S
C49   C71    1.36089       .     S
C71   C49    1.36089       .     S
C49   C84    1.39561   1_656     S
C84   C49    1.39561   1_454     S
C50   C63    1.47658       .     S
C63   C50    1.47658       .     S
N51   H52    0.87994       .     S
H52   N51    0.87994       .     S
N51   C99    1.33297       .     S
C99   N51    1.33297       .     S
C53   C54    1.39480       .     S
C54   C53    1.39480       .     S
C53   C70    1.50778   1_554     S
C70   C53    1.50779   1_556     S
C54   H55    0.94994       .     S
H55   C54    0.94994       .     S
C54   C56    1.34914       .     S
C56   C54    1.34914       .     S
C56   H57    0.95006       .     S
H57   C56    0.95006       .     S
C56   C82    1.38466       .     S
C82   C56    1.38466       .     S
C58   C87    1.49931       .     S
C87   C58    1.49931       .     S
C59   C97    1.49198       .     S
C97   C59    1.49198       .     S
C60   H61    0.94967       .     S
H61   C60    0.94967       .     S
C60   C79    1.37288       .     S
C79   C60    1.37288       .     S
C60   C89    1.40145       .     S
C89   C60    1.40145       .     S
C62   C64    1.38228       .     S
C64   C62    1.38228       .     S
C62   C91    1.39592   1_655     S
C91   C62    1.39592   1_455     S
C63   C103   1.41151       .     S
C103  C63    1.41151       .     S
C64   H65    0.95018       .     S
H65   C64    0.95018       .     S
C64   C71    1.38895   1_554     S
C71   C64    1.38895   1_556     S
C66   C73    1.52796   1_655     S
C73   C66    1.52796   1_455     S
C67   C69    1.54059       .     S
C69   C67    1.54059       .     S
C69   C82    1.39159       .     S
C82   C69    1.39159       .     S
C71   H72    0.95008       .     S
H72   C71    0.95008       .     S
C73   H74    1.00020   1_455     S
H74   C73    1.00020   1_655     S
C73   C75    1.53188       .     S
C75   C73    1.53188       .     S
C75   H76    0.98002       .     S
H76   C75    0.98002       .     S
C75   H77    0.97962   1_455     S
H77   C75    0.97962   1_655     S
C75   H78    0.98053       .     S
H78   C75    0.98053       .     S
C79   C95    1.38925       .     S
C95   C79    1.38925       .     S
C80   H81    0.94891       .     S
H81   C80    0.94891       .     S
C80   C103   1.40209       .     S
C103  C80    1.40209       .     S
C82   H83    0.95045       .     S
H83   C82    0.95045       .     S
C84   H85    0.94991       .     S
H85   C84    0.94991       .     S
C84   C91    1.37434       .     S
C91   C84    1.37434       .     S
C86   C101   1.56342       .     S
C101  C86    1.56342       .     S
C87   H88    1.00005       .     S
H88   C87    1.00005       .     S
C87   C114   1.52908       .     S
C114  C87    1.52908       .     S
C89   H90    0.94984   1_455     S
H90   C89    0.94985   1_655     S
C89   C105   1.40650       .     S
C105  C89    1.40650       .     S
C91   H92    0.95002       .     S
H92   C91    0.95002       .     S
C93   H94    0.94980       .     S
H94   C93    0.94980       .     S
C93   C95    1.42101       .     S
C95   C93    1.42101       .     S
C93   C105   1.37268       .     S
C105  C93    1.37268       .     S
C95   H96    0.95031       .     S
H96   C95    0.95031       .     S
C97   H98    1.00017       .     S
H98   C97    1.00017       .     S
C97   C106   1.52091   1_554     S
C106  C97    1.52091   1_556     S
C101  H102   0.99949       .     S
H102  C101   0.99949       .     S
C101  C110   1.50715       .     S
C110  C101   1.50715       .     S
C103  H104   0.94986       .     S
H104  C103   0.94986       .     S
C106  H107   0.98037       .     S
H107  C106   0.98037       .     S
C106  H108   0.98021       .     S
H108  C106   0.98021       .     S
C106  H109   0.97972       .     S
H109  C106   0.97972       .     S
C110  H111   0.98002       .     S
H111  C110   0.98002       .     S
C110  H112   0.98049       .     S
H112  C110   0.98049       .     S
C110  H113   0.97959       .     S
H113  C110   0.97959       .     S
C114  H115   0.97947       .     S
H115  C114   0.97947       .     S
C114  H116   0.97981       .     S
H116  C114   0.97981       .     S
C114  H117   0.98117       .     S
H117  C114   0.98117       .     S
O4    H11    2.15880   1_455     S
H11   O4     2.15880   1_655     S
N24   H11    2.23807       .     S
H11   N24    2.23807       .     S
N16   H15    2.33660       .     S
H15   N16    2.33660       .     S
S3    H19    2.43264   1_565     S
H19   S3     2.43264   1_545     S
S0    H21    2.79223       .     S
H21   S0     2.79223       .     S
N9    H21    2.48091   1_554     S
H21   N9     2.48091   1_556     S
S1    H23    2.77176       .     S
H23   S1     2.77176       .     S
N16   H23    2.24610       .     S
H23   N16    2.24610       .     S
O12   H27    2.17573   1_655     S
H27   O12    2.17573   1_455     S
N47   H27    2.27602       .     S
H27   N47    2.27602       .     S
O5    H29    2.20512   1_655     S
H29   O5     2.20512   1_455     S
N34   H29    2.23691       .     S
H29   N34    2.23691       .     S
S0    H31    2.66455       .     S
H31   S0     2.66455       .     S
N9    H31    2.39856   1_554     S
H31   N9     2.39856   1_556     S
O6    H33    2.10628       .     S
H33   O6     2.10628       .     S
O7    H37    2.15896       .     S
H37   O7     2.15896       .     S
N38   H37    2.30573       .     S
H37   N38    2.30573       .     S
O17   H46    2.09553       .     S
H46   O17    2.09553       .     S
S2    H52    2.50915       .     S
H52   S2     2.50915       .     S
C68   S0     1.65831       .     S
S0    C68    1.65831       .     S
C100  S1     1.66730       .     S
S1    C100   1.66730       .     S
C44   S2     1.66709   1_545     S
S2    C44    1.66709   1_565     S
C99   S3     1.72902       .     S
S3    C99    1.72902       .     S
C41   O4     1.21048       .     S
O4    C41    1.21048       .     S
C50   O5     1.25606       .     S
O5    C50    1.25606       .     S
C58   O6     1.22032       .     S
O6    C58    1.22032       .     S
C70   O7     1.23178       .     S
O7    C70    1.23178       .     S
C66   O8     1.22358   1_655     S
O8    C66    1.22358   1_455     S
C53   N9     1.34161       .     S
N9    C53    1.34161       .     S
C69   N9     1.30892       .     S
N9    C69    1.30892       .     S
H11   N10    0.87981       .     S
N10   H11    0.87981       .     S
C44   N10    1.34195       .     S
N10   C44    1.34195       .     S
C62   N10    1.43921       .     S
N10   C62    1.43921       .     S
C67   O12    1.21244       .     S
O12   C67    1.21244       .     S
C59   O13    1.25027       .     S
O13   C59    1.25027       .     S
H15   N14    0.87927       .     S
N14   H15    0.87927       .     S
C41   N14    1.35725       .     S
N14   C41    1.35725       .     S
C73   N14    1.42867       .     S
N14   C73    1.42867       .     S
C40   N16    1.31877       .     S
N16   C40    1.31877       .     S
C63   N16    1.34703       .     S
N16   C63    1.34703       .     S
C86   O17    1.21687       .     S
O17   C86    1.21687       .     S
H19   N18    0.88094       .     S
N18   H19    0.88094       .     S
N24   N18    1.38909       .     S
N18   N24    1.38909       .     S
C44   N18    1.36966       .     S
N18   C44    1.36966       .     S
H21   N20    0.87984   1_556     S
N20   H21    0.87984   1_554     S
C67   N20    1.33516       .     S
N20   C67    1.33516       .     S
C97   N20    1.47874   1_455     S
N20   C97    1.47874   1_655     S
H23   N22    0.88042       .     S
N22   H23    0.88042       .     S
C50   N22    1.32770       .     S
N22   C50    1.32770       .     S
C87   N22    1.45273       .     S
N22   C87    1.45273       .     S
H25   N24    0.87941       .     S
N24   H25    0.87941       .     S
C66   N24    1.34734       .     S
N24   C66    1.34734       .     S
H27   N26    0.88022       .     S
N26   H27    0.88022       .     S
C79   N26    1.42326       .     S
N26   C79    1.42326       .     S
C99   N26    1.33466       .     S
N26   C99    1.33466       .     S
H29   N28    0.87934       .     S
N28   H29    0.87934       .     S
C100  N28    1.32579       .     S
N28   C100   1.32579       .     S
C105  N28    1.41941       .     S
N28   C105   1.41941       .     S
H31   N30    0.87953       .     S
N30   H31    0.87953       .     S
C70   N30    1.34993       .     S
N30   C70    1.34993       .     S
C101  N30    1.46636       .     S
N30   C101   1.46636       .     S
H33   N32    0.88060       .     S
N32   H33    0.88060       .     S
N38   N32    1.43593   1_455     S
N32   N38    1.43593   1_655     S
C68   N32    1.36047       .     S
N32   C68    1.36047       .     S
H35   N34    0.87942       .     S
N34   H35    0.87942       .     S
N45   N34    1.39273       .     S
N34   N45    1.39273       .     S
C58   N34    1.36122   1_655     S
N34   C58    1.36122   1_455     S
H37   N36    0.88057   1_455     S
N36   H37    0.88057   1_655     S
C49   N36    1.42505       .     S
N36   C49    1.42505       .     S
C68   N36    1.38270       .     S
N36   C68    1.38270       .     S
H39   N38    0.87963       .     S
N38   H39    0.87963       .     S
C86   N38    1.32154       .     S
N38   C86    1.32154       .     S
C41   C40    1.50812       .     S
C40   C41    1.50812       .     S
C42   C40    1.41136       .     S
C40   C42    1.41136       .     S
H43   C42    0.94957       .     S
C42   H43    0.94957       .     S
C80   C42    1.34369       .     S
C42   C80    1.34369       .     S
H46   N45    0.88087       .     S
N45   H46    0.88087       .     S
C100  N45    1.38292       .     S
N45   C100   1.38292       .     S
H48   N47    0.88041       .     S
N47   H48    0.88041       .     S
N51   N47    1.38184       .     S
N47   N51    1.38184       .     S
C59   N47    1.33789       .     S
N47   C59    1.33789       .     S
C71   C49    1.36089       .     S
C49   C71    1.36089       .     S
C84   C49    1.39561   1_454     S
C49   C84    1.39561   1_656     S
C63   C50    1.47658       .     S
C50   C63    1.47658       .     S
H52   N51    0.87994       .     S
N51   H52    0.87994       .     S
C99   N51    1.33297       .     S
N51   C99    1.33297       .     S
C54   C53    1.39480       .     S
C53   C54    1.39480       .     S
C70   C53    1.50779   1_556     S
C53   C70    1.50778   1_554     S
H55   C54    0.94994       .     S
C54   H55    0.94994       .     S
C56   C54    1.34914       .     S
C54   C56    1.34914       .     S
H57   C56    0.95006       .     S
C56   H57    0.95006       .     S
C82   C56    1.38466       .     S
C56   C82    1.38466       .     S
C87   C58    1.49931       .     S
C58   C87    1.49931       .     S
C97   C59    1.49198       .     S
C59   C97    1.49198       .     S
H61   C60    0.94967       .     S
C60   H61    0.94967       .     S
C79   C60    1.37288       .     S
C60   C79    1.37288       .     S
C89   C60    1.40145       .     S
C60   C89    1.40145       .     S
C64   C62    1.38228       .     S
C62   C64    1.38228       .     S
C91   C62    1.39592   1_455     S
C62   C91    1.39592   1_655     S
C103  C63    1.41151       .     S
C63   C103   1.41151       .     S
H65   C64    0.95018       .     S
C64   H65    0.95018       .     S
C71   C64    1.38895   1_556     S
C64   C71    1.38895   1_554     S
C73   C66    1.52796   1_455     S
C66   C73    1.52796   1_655     S
C69   C67    1.54059       .     S
C67   C69    1.54059       .     S
C82   C69    1.39159       .     S
C69   C82    1.39159       .     S
H72   C71    0.95008       .     S
C71   H72    0.95008       .     S
H74   C73    1.00020   1_655     S
C73   H74    1.00020   1_455     S
C75   C73    1.53188       .     S
C73   C75    1.53188       .     S
H76   C75    0.98002       .     S
C75   H76    0.98002       .     S
H77   C75    0.97962   1_655     S
C75   H77    0.97962   1_455     S
H78   C75    0.98053       .     S
C75   H78    0.98053       .     S
C95   C79    1.38925       .     S
C79   C95    1.38925       .     S
H81   C80    0.94891       .     S
C80   H81    0.94891       .     S
C103  C80    1.40209       .     S
C80   C103   1.40209       .     S
H83   C82    0.95045       .     S
C82   H83    0.95045       .     S
H85   C84    0.94991       .     S
C84   H85    0.94991       .     S
C91   C84    1.37434       .     S
C84   C91    1.37434       .     S
C101  C86    1.56342       .     S
C86   C101   1.56342       .     S
H88   C87    1.00005       .     S
C87   H88    1.00005       .     S
C114  C87    1.52908       .     S
C87   C114   1.52908       .     S
H90   C89    0.94985   1_655     S
C89   H90    0.94984   1_455     S
C105  C89    1.40650       .     S
C89   C105   1.40650       .     S
H92   C91    0.95002       .     S
C91   H92    0.95002       .     S
H94   C93    0.94980       .     S
C93   H94    0.94980       .     S
C95   C93    1.42101       .     S
C93   C95    1.42101       .     S
C105  C93    1.37268       .     S
C93   C105   1.37268       .     S
H96   C95    0.95031       .     S
C95   H96    0.95031       .     S
H98   C97    1.00017       .     S
C97   H98    1.00017       .     S
C106  C97    1.52091   1_556     S
C97   C106   1.52091   1_554     S
H102  C101   0.99949       .     S
C101  H102   0.99949       .     S
C110  C101   1.50715       .     S
C101  C110   1.50715       .     S
H104  C103   0.94986       .     S
C103  H104   0.94986       .     S
H107  C106   0.98037       .     S
C106  H107   0.98037       .     S
H108  C106   0.98021       .     S
C106  H108   0.98021       .     S
H109  C106   0.97972       .     S
C106  H109   0.97972       .     S
H111  C110   0.98002       .     S
C110  H111   0.98002       .     S
H112  C110   0.98049       .     S
C110  H112   0.98049       .     S
H113  C110   0.97959       .     S
C110  H113   0.97959       .     S
H115  C114   0.97947       .     S
C114  H115   0.97947       .     S
H116  C114   0.97981       .     S
C114  H116   0.97981       .     S
H117  C114   0.98117       .     S
C114  H117   0.98117       .     S
