data_I
_chemical_name_common  '/data/user2/wty/HOF/MOFDiff/mofdiff/data/test/2031d'
_cell_length_a  9.83020
_cell_length_b 12.21200
_cell_length_c 16.47750
_cell_angle_alpha 98.64200
_cell_angle_beta  105.43600
_cell_angle_gamma 104.59600
_space_group_name_H-M_alt      'P 1'


loop_
_space_group_symop_operation_xyz
  'x, y, z' 

loop_
_atom_site_label
_atom_site_fract_x
_atom_site_fract_y
_atom_site_fract_z
_atom_site_type_symbol
S0     0.25687  0.60431  0.97346     S
S1     0.65845  0.39104  0.12676     S
S2     0.45198  0.06292  0.42694     S
S3     0.38669  0.99722  0.66671     S
O4      0.2062   0.3251    0.256     O
O5      0.1498   0.5207   0.1561     O
O6      0.9686   0.5765   0.4808     O
O7      0.7398   0.7132   0.8445     O
O8       0.761   0.3714   0.6724     O
O9      0.0112   0.8104   0.4216     O
O10     0.7799   0.5362   0.9643     O
O11     0.0362   0.3366   0.6169     O
N12     0.9472   0.7098   0.0404     N
H13     0.9614   0.7798   0.0673     H
N14     0.5959     0.46   0.3442     N
N15     0.2013   0.7762   0.6079     N
H16     0.1586   0.7174   0.5644     H
N17     0.0671   0.6681   0.0392     N
H18     0.1103   0.6455   0.0833     H
N19     0.0832   0.4199   0.7577     N
H20     0.1339   0.4779    0.801     H
N21     0.8683   0.5713   0.3402     N
H22     0.7889     0.55   0.2964     H
N23     0.3763   0.4146   0.1989     N
H24     0.4665   0.4565   0.2098     H
N25     0.0471    0.703   0.9045     N
H26     0.9687   0.7208   0.9067     H
N27     0.3576   0.5468    0.759     N
N28     0.8843   0.3121   0.1929     N
H29     0.9664    0.303   0.1889     H
N30     0.5747   0.6573   0.9141     N
H31     0.4834   0.6272   0.9102     H
N32     0.3065   0.8609   0.5135     N
H33      0.368   0.9161   0.5027     H
C34     0.7076   0.4799   0.4149     C
N35     0.7423   0.1934   0.4844     N
H36     0.8198   0.2232   0.5293     H
N37     0.2212   0.7599   0.4479     N
H38      0.261   0.7072   0.4352     H
N39     0.0038   0.3462   0.0683     N
H40     0.9972   0.2797   0.0387     H
C41     0.6888    0.449   0.4903     C
H42     0.7709   0.4657   0.5393     H
N43     0.7664    0.185    0.651     N
H44     0.8148   0.1382   0.6671     H
C45     0.8609   0.5463   0.4146     C
N46     0.8763   0.3769   0.0694     N
H47     0.8376   0.4095   0.0304     H
N48     0.6333   0.1424   0.5845     N
H49     0.5536   0.1172   0.5973     H
C50     0.0975   0.7179   0.8315     C
C51     0.8217   0.2993    0.691     C
C52     0.6127   0.6669   0.8419     C
C53     0.4892   0.6157   0.7561     C
C54     0.1132   0.4119   0.6825     C
C55     0.2921   0.8717   0.5945     C
C56     0.5125   0.6382   0.6816     C
H57      0.603   0.6877   0.6837     H
C58     0.0788   0.7449   0.4049     C
C59     0.1405   0.4252   0.1158     C
C60     0.3348   0.3763   0.2614     C
C61     0.1696   0.7633    0.686     C
C62     0.1167   0.6629    0.969     C
C63     0.9134   0.2728   0.4143     C
H64      0.987   0.2907   0.4675     H
C65     0.5529    0.395   0.4927     C
H66     0.5403   0.3761   0.5434     H
C67     0.4608   0.4002   0.3432     C
C68     0.9586   0.3246    0.764     C
H69     0.9883   0.2539   0.7651     H
C70     0.7669   0.2121   0.4055     C
C71     0.4036   0.5884   0.6038     C
H72     0.4186   0.6031   0.5526     H
C73     0.8078   0.6368    0.998     C
C74     0.6606   0.1855   0.3274     C
H75     0.5633    0.145   0.3213     H
C76     0.9775   0.6715   0.2455     C
H77     0.9335    0.604   0.1982     H
H78     0.0693   0.7168    0.241     H
H79     0.9112   0.7176   0.2434     H
C80     0.8128   0.3553   0.1321     C
C81      0.272   0.3876   0.1103     C
H82     0.3218   0.4392   0.0798     H
C83      0.007   0.6337   0.3311     C
H84     0.0729   0.5851   0.3338     H
C85     0.4305   0.3678   0.4178     C
H86     0.3348   0.3306   0.4167     H
C87     0.9492   0.3066   0.3431     C
H88     0.0463   0.3484   0.3498     H
C89     0.2554   0.4995   0.6821     C
C90     0.0275   0.6951   0.6769     C
H91     0.9583   0.6632    0.622     H
C92     0.2765   0.8051   0.7678     C
H93     0.3737   0.8462   0.7743     H
C94       0.27   0.5153   0.6034     C
H95     0.1931   0.4784    0.552     H
C96      0.989   0.6746   0.7485     C
H97     0.8925   0.6325   0.7427     H
C98      0.234   0.7837   0.8393     C
H99     0.3025   0.8161   0.8943     H
C100    0.6962   0.2187   0.2551     C
H101    0.6223   0.2005    0.202     H
C102    0.8427    0.279   0.2636     C
C103    0.6888   0.6982   0.9988     C
H104    0.7349   0.7823   0.0091     H
C105    0.6211   0.1382   0.5016     C
C106     0.934   0.3655   0.8506     C
H107    0.0282   0.4019   0.8948     H
H108    0.8792   0.2998   0.8664     H
H109    0.8793   0.4204   0.8445     H
C110    0.2423   0.2652     0.06     C
H111    0.3254   0.2383   0.0822     H
H112    0.2278   0.2648      0.0     H
H113    0.1549   0.2148   0.0659     H
C114    0.6241   0.6737   0.0716     C
H115    0.6027   0.7414   0.0961     H
H116    0.6946   0.6551   0.1158     H
H117    0.5344   0.6093   0.0486     H
loop_
_geom_bond_atom_site_label_1
_geom_bond_atom_site_label_2
_geom_bond_distance
_geom_bond_site_symmetry_2
_ccdc_geom_bond_type
H16   O6     2.15524   1_455     S
O6    H16    2.15524   1_655     S
H16   N37    2.25838       .     S
N37   H16    2.25838       .     S
H18   O5     2.12419       .     S
O5    H18    2.12419       .     S
H20   S0     2.79861       .     S
S0    H20    2.79861       .     S
H20   N27    2.46478       .     S
N27   H20    2.46478       .     S
H22   N14    2.33076       .     S
N14   H22    2.33076       .     S
H24   S1     2.80670       .     S
S1    H24    2.80670       .     S
H24   N14    2.22909       .     S
N14   H24    2.22909       .     S
H26   O7     2.18190       .     S
O7    H26    2.18190       .     S
H26   N12    2.28880   1_556     S
N12   H26    2.28880   1_554     S
H29   O4     2.24819   1_655     S
O4    H29    2.24819   1_455     S
H29   N39    2.22904   1_655     S
N39   H29    2.22904   1_455     S
H31   S0     2.67075       .     S
S0    H31    2.67075       .     S
H31   N27    2.39023       .     S
N27   H31    2.39023       .     S
H33   S2     2.43512   1_565     S
S2    H33    2.43512   1_545     S
H36   O11    2.19237   1_655     S
O11   H36    2.19237   1_455     S
H36   N43    2.28747       .     S
N43   H36    2.28747       .     S
H47   O10    2.12648   1_554     S
O10   H47    2.12648   1_556     S
H49   S3     2.53729   1_545     S
S3    H49    2.53729   1_565     S
S0    C62    1.69550       .     S
C62   S0     1.69550       .     S
S1    C80    1.66573       .     S
C80   S1     1.66573       .     S
S2    C105   1.70984       .     S
C105  S2     1.70984       .     S
S3    C55    1.66570       .     S
C55   S3     1.66570       .     S
O4    C60    1.23369       .     S
C60   O4     1.23369       .     S
O5    C59    1.22092       .     S
C59   O5     1.22092       .     S
O6    C45    1.23057       .     S
C45   O6     1.23057       .     S
O7    C52    1.22096       .     S
C52   O7     1.22096       .     S
O8    C51    1.21399       .     S
C51   O8     1.21399       .     S
O9    C58    1.20674       .     S
C58   O9     1.20674       .     S
O10   C73    1.19873       .     S
C73   O10    1.19873       .     S
O11   C54    1.22551       .     S
C54   O11    1.22551       .     S
N12   H13    0.86009       .     S
H13   N12    0.86009       .     S
N12   N17    1.40029   1_655     S
N17   N12    1.40029   1_455     S
N12   C73    1.35946   1_554     S
C73   N12    1.35946   1_556     S
N14   C34    1.31201       .     S
C34   N14    1.31201       .     S
N14   C67    1.33912       .     S
C67   N14    1.33912       .     S
N15   H16    0.85955       .     S
H16   N15    0.85955       .     S
N15   C55    1.36500       .     S
C55   N15    1.36500       .     S
N15   C61    1.42396       .     S
C61   N15    1.42396       .     S
N17   H18    0.86001       .     S
H18   N17    0.86001       .     S
N17   C62    1.36877   1_554     S
C62   N17    1.36877   1_556     S
N19   H20    0.86026       .     S
H20   N19    0.86026       .     S
N19   C54    1.34334       .     S
C54   N19    1.34334       .     S
N19   C68    1.50033   1_455     S
C68   N19    1.50033   1_655     S
N21   H22    0.85973       .     S
H22   N21    0.85973       .     S
N21   C45    1.32293       .     S
C45   N21    1.32293       .     S
N21   C83    1.44280   1_655     S
C83   N21    1.44280   1_455     S
N23   H24    0.85978       .     S
H24   N23    0.85978       .     S
N23   C60    1.31072       .     S
C60   N23    1.31072       .     S
N23   C81    1.47629       .     S
C81   N23    1.47629       .     S
N25   H26    0.85992   1_455     S
H26   N25    0.85992   1_655     S
N25   C50    1.43632       .     S
C50   N25    1.43632       .     S
N25   C62    1.33253       .     S
C62   N25    1.33253       .     S
N27   C53    1.37120       .     S
C53   N27    1.37120       .     S
N27   C89    1.32607       .     S
C89   N27    1.32607       .     S
N28   H29    0.85986       .     S
H29   N28    0.85986       .     S
N28   C80    1.32170       .     S
C80   N28    1.32170       .     S
N28   C102   1.41405       .     S
C102  N28    1.41405       .     S
N30   H31    0.86062       .     S
H31   N30    0.86062       .     S
N30   C52    1.35093       .     S
C52   N30    1.35093       .     S
N30   C103   1.45952       .     S
C103  N30    1.45952       .     S
N32   H33    0.85994       .     S
H33   N32    0.85994       .     S
N32   N37    1.41011       .     S
N37   N32    1.41011       .     S
N32   C55    1.36963       .     S
C55   N32    1.36963       .     S
C34   C41    1.39574       .     S
C41   C34    1.39574       .     S
C34   C45    1.52243       .     S
C45   C34    1.52243       .     S
N35   H36    0.85995       .     S
H36   N35    0.85995       .     S
N35   C70    1.42463       .     S
C70   N35    1.42463       .     S
N35   C105   1.33664       .     S
C105  N35    1.33664       .     S
N37   H38    0.86085       .     S
H38   N37    0.86085       .     S
N37   C58    1.34122       .     S
C58   N37    1.34122       .     S
N39   H40    0.85975   1_455     S
H40   N39    0.85975   1_655     S
N39   N46    1.39952   1_455     S
N46   N39    1.39952   1_655     S
N39   C59    1.38163       .     S
C59   N39    1.38163       .     S
C41   H42    0.93033       .     S
H42   C41    0.93033       .     S
C41   C65    1.34651       .     S
C65   C41    1.34651       .     S
N43   H44    0.85954       .     S
H44   N43    0.85954       .     S
N43   N48    1.38046       .     S
N48   N43    1.38046       .     S
N43   C51    1.35227       .     S
C51   N43    1.35227       .     S
N46   H47    0.85980       .     S
H47   N46    0.85980       .     S
N46   C80    1.36704       .     S
C80   N46    1.36704       .     S
N48   H49    0.85963       .     S
H49   N48    0.85963       .     S
N48   C105   1.33100       .     S
C105  N48    1.33100       .     S
C50   C96    1.41758   1_455     S
C96   C50    1.41758   1_655     S
C50   C98    1.34031       .     S
C98   C50    1.34031       .     S
C51   C68    1.47324       .     S
C68   C51    1.47324       .     S
C52   C53    1.51713       .     S
C53   C52    1.51713       .     S
C53   C56    1.36170       .     S
C56   C53    1.36170       .     S
C54   C89    1.53356       .     S
C89   C54    1.53356       .     S
C56   H57    0.92970       .     S
H57   C56    0.92970       .     S
C56   C71    1.36612       .     S
C71   C56    1.36612       .     S
C58   C83    1.54428       .     S
C83   C58    1.54428       .     S
C59   C81    1.49635       .     S
C81   C59    1.49635       .     S
C60   C67    1.49898       .     S
C67   C60    1.49898       .     S
C61   C90    1.38997       .     S
C90   C61    1.38997       .     S
C61   C92    1.39659       .     S
C92   C61    1.39659       .     S
C63   H64    0.92993       .     S
H64   C63    0.92993       .     S
C63   C70    1.40106       .     S
C70   C63    1.40106       .     S
C63   C87    1.40097       .     S
C87   C63    1.40097       .     S
C65   H66    0.93013       .     S
H66   C65    0.93013       .     S
C65   C85    1.40218       .     S
C85   C65    1.40218       .     S
C67   C85    1.42756       .     S
C85   C67    1.42756       .     S
C68   H69    0.97976       .     S
H69   C68    0.97976       .     S
C68   C106   1.54095       .     S
C106  C68    1.54095       .     S
C70   C74    1.35683       .     S
C74   C70    1.35683       .     S
C71   H72    0.92957       .     S
H72   C71    0.92957       .     S
C71   C94    1.38726       .     S
C94   C71    1.38726       .     S
C73   C103   1.54212       .     S
C103  C73    1.54212       .     S
C74   H75    0.93007       .     S
H75   C74    0.93007       .     S
C74   C100   1.41481       .     S
C100  C74    1.41481       .     S
C76   H77    0.96010       .     S
H77   C76    0.96010       .     S
C76   H78    0.96032   1_655     S
H78   C76    0.96032   1_455     S
C76   H79    0.96004       .     S
H79   C76    0.96004       .     S
C76   C83    1.52710   1_655     S
C83   C76    1.52710   1_455     S
C81   H82    0.97978       .     S
H82   C81    0.97978       .     S
C81   C110   1.51175       .     S
C110  C81    1.51175       .     S
C83   H84    0.97993       .     S
H84   C83    0.97993       .     S
C85   H86    0.92993       .     S
H86   C85    0.92993       .     S
C87   H88    0.93019   1_655     S
H88   C87    0.93019   1_455     S
C87   C102   1.37298       .     S
C102  C87    1.37298       .     S
C89   C94    1.37832       .     S
C94   C89    1.37832       .     S
C90   H91    0.93048   1_455     S
H91   C90    0.93048   1_655     S
C90   C96    1.36985   1_455     S
C96   C90    1.36985   1_655     S
C92   H93    0.92953       .     S
H93   C92    0.92953       .     S
C92   C98    1.38938       .     S
C98   C92    1.38938       .     S
C94   H95    0.92985       .     S
H95   C94    0.92985       .     S
C96   H97    0.92978       .     S
H97   C96    0.92978       .     S
C98   H99    0.92973       .     S
H99   C98    0.92973       .     S
C100  H101   0.92979       .     S
H101  C100   0.92979       .     S
C100  C102   1.40106       .     S
C102  C100   1.40106       .     S
C103  H104   0.98034   1_556     S
H104  C103   0.98034   1_554     S
C103  C114   1.53332   1_556     S
C114  C103   1.53332   1_554     S
C106  H107   0.96008   1_655     S
H107  C106   0.96008   1_455     S
C106  H108   0.95984       .     S
H108  C106   0.95984       .     S
C106  H109   0.96016       .     S
H109  C106   0.96016       .     S
C110  H111   0.95986       .     S
H111  C110   0.95986       .     S
C110  H112   0.95966       .     S
H112  C110   0.95966       .     S
C110  H113   0.96039       .     S
H113  C110   0.96039       .     S
C114  H115   0.96089       .     S
H115  C114   0.96089       .     S
C114  H116   0.96056       .     S
H116  C114   0.96056       .     S
C114  H117   0.96056       .     S
H117  C114   0.96056       .     S
O6    H16    2.15524   1_655     S
H16   O6     2.15524   1_455     S
N37   H16    2.25838       .     S
H16   N37    2.25838       .     S
O5    H18    2.12419       .     S
H18   O5     2.12419       .     S
S0    H20    2.79861       .     S
H20   S0     2.79861       .     S
N27   H20    2.46478       .     S
H20   N27    2.46478       .     S
N14   H22    2.33076       .     S
H22   N14    2.33076       .     S
S1    H24    2.80670       .     S
H24   S1     2.80670       .     S
N14   H24    2.22909       .     S
H24   N14    2.22909       .     S
O7    H26    2.18190       .     S
H26   O7     2.18190       .     S
N12   H26    2.28880   1_554     S
H26   N12    2.28880   1_556     S
O4    H29    2.24819   1_455     S
H29   O4     2.24819   1_655     S
N39   H29    2.22904   1_455     S
H29   N39    2.22904   1_655     S
S0    H31    2.67075       .     S
H31   S0     2.67075       .     S
N27   H31    2.39023       .     S
H31   N27    2.39023       .     S
S2    H33    2.43512   1_545     S
H33   S2     2.43512   1_565     S
O11   H36    2.19237   1_455     S
H36   O11    2.19237   1_655     S
N43   H36    2.28747       .     S
H36   N43    2.28747       .     S
O10   H47    2.12648   1_556     S
H47   O10    2.12648   1_554     S
S3    H49    2.53729   1_565     S
H49   S3     2.53729   1_545     S
C62   S0     1.69550       .     S
S0    C62    1.69550       .     S
C80   S1     1.66573       .     S
S1    C80    1.66573       .     S
C105  S2     1.70984       .     S
S2    C105   1.70984       .     S
C55   S3     1.66570       .     S
S3    C55    1.66570       .     S
C60   O4     1.23369       .     S
O4    C60    1.23369       .     S
C59   O5     1.22092       .     S
O5    C59    1.22092       .     S
C45   O6     1.23057       .     S
O6    C45    1.23057       .     S
C52   O7     1.22096       .     S
O7    C52    1.22096       .     S
C51   O8     1.21399       .     S
O8    C51    1.21399       .     S
C58   O9     1.20674       .     S
O9    C58    1.20674       .     S
C73   O10    1.19873       .     S
O10   C73    1.19873       .     S
C54   O11    1.22551       .     S
O11   C54    1.22551       .     S
H13   N12    0.86009       .     S
N12   H13    0.86009       .     S
N17   N12    1.40029   1_455     S
N12   N17    1.40029   1_655     S
C73   N12    1.35946   1_556     S
N12   C73    1.35946   1_554     S
C34   N14    1.31201       .     S
N14   C34    1.31201       .     S
C67   N14    1.33912       .     S
N14   C67    1.33912       .     S
H16   N15    0.85955       .     S
N15   H16    0.85955       .     S
C55   N15    1.36500       .     S
N15   C55    1.36500       .     S
C61   N15    1.42396       .     S
N15   C61    1.42396       .     S
H18   N17    0.86001       .     S
N17   H18    0.86001       .     S
C62   N17    1.36877   1_556     S
N17   C62    1.36877   1_554     S
H20   N19    0.86026       .     S
N19   H20    0.86026       .     S
C54   N19    1.34334       .     S
N19   C54    1.34334       .     S
C68   N19    1.50033   1_655     S
N19   C68    1.50033   1_455     S
H22   N21    0.85973       .     S
N21   H22    0.85973       .     S
C45   N21    1.32293       .     S
N21   C45    1.32293       .     S
C83   N21    1.44280   1_455     S
N21   C83    1.44280   1_655     S
H24   N23    0.85978       .     S
N23   H24    0.85978       .     S
C60   N23    1.31072       .     S
N23   C60    1.31072       .     S
C81   N23    1.47629       .     S
N23   C81    1.47629       .     S
H26   N25    0.85992   1_655     S
N25   H26    0.85992   1_455     S
C50   N25    1.43632       .     S
N25   C50    1.43632       .     S
C62   N25    1.33253       .     S
N25   C62    1.33253       .     S
C53   N27    1.37120       .     S
N27   C53    1.37120       .     S
C89   N27    1.32607       .     S
N27   C89    1.32607       .     S
H29   N28    0.85986       .     S
N28   H29    0.85986       .     S
C80   N28    1.32170       .     S
N28   C80    1.32170       .     S
C102  N28    1.41405       .     S
N28   C102   1.41405       .     S
H31   N30    0.86062       .     S
N30   H31    0.86062       .     S
C52   N30    1.35093       .     S
N30   C52    1.35093       .     S
C103  N30    1.45952       .     S
N30   C103   1.45952       .     S
H33   N32    0.85994       .     S
N32   H33    0.85994       .     S
N37   N32    1.41011       .     S
N32   N37    1.41011       .     S
C55   N32    1.36963       .     S
N32   C55    1.36963       .     S
C41   C34    1.39574       .     S
C34   C41    1.39574       .     S
C45   C34    1.52243       .     S
C34   C45    1.52243       .     S
H36   N35    0.85995       .     S
N35   H36    0.85995       .     S
C70   N35    1.42463       .     S
N35   C70    1.42463       .     S
C105  N35    1.33664       .     S
N35   C105   1.33664       .     S
H38   N37    0.86085       .     S
N37   H38    0.86085       .     S
C58   N37    1.34122       .     S
N37   C58    1.34122       .     S
H40   N39    0.85975   1_655     S
N39   H40    0.85975   1_455     S
N46   N39    1.39952   1_655     S
N39   N46    1.39952   1_455     S
C59   N39    1.38163       .     S
N39   C59    1.38163       .     S
H42   C41    0.93033       .     S
C41   H42    0.93033       .     S
C65   C41    1.34651       .     S
C41   C65    1.34651       .     S
H44   N43    0.85954       .     S
N43   H44    0.85954       .     S
N48   N43    1.38046       .     S
N43   N48    1.38046       .     S
C51   N43    1.35227       .     S
N43   C51    1.35227       .     S
H47   N46    0.85980       .     S
N46   H47    0.85980       .     S
C80   N46    1.36704       .     S
N46   C80    1.36704       .     S
H49   N48    0.85963       .     S
N48   H49    0.85963       .     S
C105  N48    1.33100       .     S
N48   C105   1.33100       .     S
C96   C50    1.41758   1_655     S
C50   C96    1.41758   1_455     S
C98   C50    1.34031       .     S
C50   C98    1.34031       .     S
C68   C51    1.47324       .     S
C51   C68    1.47324       .     S
C53   C52    1.51713       .     S
C52   C53    1.51713       .     S
C56   C53    1.36170       .     S
C53   C56    1.36170       .     S
C89   C54    1.53356       .     S
C54   C89    1.53356       .     S
H57   C56    0.92970       .     S
C56   H57    0.92970       .     S
C71   C56    1.36612       .     S
C56   C71    1.36612       .     S
C83   C58    1.54428       .     S
C58   C83    1.54428       .     S
C81   C59    1.49635       .     S
C59   C81    1.49635       .     S
C67   C60    1.49898       .     S
C60   C67    1.49898       .     S
C90   C61    1.38997       .     S
C61   C90    1.38997       .     S
C92   C61    1.39659       .     S
C61   C92    1.39659       .     S
H64   C63    0.92993       .     S
C63   H64    0.92993       .     S
C70   C63    1.40106       .     S
C63   C70    1.40106       .     S
C87   C63    1.40097       .     S
C63   C87    1.40097       .     S
H66   C65    0.93013       .     S
C65   H66    0.93013       .     S
C85   C65    1.40218       .     S
C65   C85    1.40218       .     S
C85   C67    1.42756       .     S
C67   C85    1.42756       .     S
H69   C68    0.97976       .     S
C68   H69    0.97976       .     S
C106  C68    1.54095       .     S
C68   C106   1.54095       .     S
C74   C70    1.35683       .     S
C70   C74    1.35683       .     S
H72   C71    0.92957       .     S
C71   H72    0.92957       .     S
C94   C71    1.38726       .     S
C71   C94    1.38726       .     S
C103  C73    1.54212       .     S
C73   C103   1.54212       .     S
H75   C74    0.93007       .     S
C74   H75    0.93007       .     S
C100  C74    1.41481       .     S
C74   C100   1.41481       .     S
H77   C76    0.96010       .     S
C76   H77    0.96010       .     S
H78   C76    0.96032   1_455     S
C76   H78    0.96032   1_655     S
H79   C76    0.96004       .     S
C76   H79    0.96004       .     S
C83   C76    1.52710   1_455     S
C76   C83    1.52710   1_655     S
H82   C81    0.97978       .     S
C81   H82    0.97978       .     S
C110  C81    1.51175       .     S
C81   C110   1.51175       .     S
H84   C83    0.97993       .     S
C83   H84    0.97993       .     S
H86   C85    0.92993       .     S
C85   H86    0.92993       .     S
H88   C87    0.93019   1_455     S
C87   H88    0.93019   1_655     S
C102  C87    1.37298       .     S
C87   C102   1.37298       .     S
C94   C89    1.37832       .     S
C89   C94    1.37832       .     S
H91   C90    0.93048   1_655     S
C90   H91    0.93048   1_455     S
C96   C90    1.36985   1_655     S
C90   C96    1.36985   1_455     S
H93   C92    0.92953       .     S
C92   H93    0.92953       .     S
C98   C92    1.38938       .     S
C92   C98    1.38938       .     S
H95   C94    0.92985       .     S
C94   H95    0.92985       .     S
H97   C96    0.92978       .     S
C96   H97    0.92978       .     S
H99   C98    0.92973       .     S
C98   H99    0.92973       .     S
H101  C100   0.92979       .     S
C100  H101   0.92979       .     S
C102  C100   1.40106       .     S
C100  C102   1.40106       .     S
H104  C103   0.98034   1_554     S
C103  H104   0.98034   1_556     S
C114  C103   1.53332   1_554     S
C103  C114   1.53332   1_556     S
H107  C106   0.96008   1_455     S
C106  H107   0.96008   1_655     S
H108  C106   0.95984       .     S
C106  H108   0.95984       .     S
H109  C106   0.96016       .     S
C106  H109   0.96016       .     S
H111  C110   0.95986       .     S
C110  H111   0.95986       .     S
H112  C110   0.95966       .     S
C110  H112   0.95966       .     S
H113  C110   0.96039       .     S
C110  H113   0.96039       .     S
H115  C114   0.96089       .     S
C114  H115   0.96089       .     S
H116  C114   0.96056       .     S
C114  H116   0.96056       .     S
H117  C114   0.96056       .     S
C114  H117   0.96056       .     S
