data_I
_chemical_name_common  '/data/user2/wty/HOF/MOFDiff/mofdiff/data/test/2033'
_cell_length_a  9.85680
_cell_length_b 12.85780
_cell_length_c 18.75080
_cell_angle_alpha 83.10100
_cell_angle_beta  76.20300
_cell_angle_gamma 74.86500
_space_group_name_H-M_alt      'P 1'


loop_
_space_group_symop_operation_xyz
  'x, y, z' 

loop_
_atom_site_label
_atom_site_fract_x
_atom_site_fract_y
_atom_site_fract_z
_atom_site_type_symbol
S0      0.5247  0.94345  0.43802     S
S1     0.13519  0.53601  0.97801     S
S2     0.71674  0.45928  0.69673     S
S3      0.3273  0.05007  0.23696     S
O4      0.9024   0.6236    0.276     O
O5      0.6181   0.4305   0.0856     O
N6       0.616   0.4458   0.5148     N
N7      0.2737   0.1189   0.3685     N
H8      0.3273   0.0551    0.379     H
O9      0.0119   0.1346   0.4616     O
N10     0.9436    0.417   0.0364     N
H11     0.8644   0.3999   0.0333     H
O12     0.1846   0.3566   0.6857     O
O13      0.956   0.3742   0.3946     O
N14     0.2209   0.1915   0.4208     N
H15     0.2704   0.2373   0.4254     H
C16     0.4888   0.4856   0.0873     C
O17     0.8378   0.8628   0.2115     O
N18     0.7098   0.7627   0.3834     N
H19     0.7505   0.7233   0.3452     H
N20     0.4438   0.5357    0.028     N
H21     0.3551   0.5756   0.0334     H
N22     0.1497   0.2344   0.2904     N
H23      0.112   0.2728   0.3292     H
N24     0.9303   0.4842    0.747     N
H25     0.8903   0.4523   0.7878     H
N26     0.8908   0.3396   0.5178     N
H27     0.8215   0.3479   0.5577     H
N28     0.0581   0.5095   0.7421     N
H29     0.0601     0.57   0.7588     H
O30     0.2466   0.5593   0.5854     O
N31     0.9643   0.6535    0.153     N
H32     0.0343   0.6428   0.1136     H
C33     0.7687   0.7992   0.2065     C
C34     0.1492   0.5518   0.2195     C
O35     0.6738   0.6384   0.9843     O
C36     0.1769   0.5015   0.2863     C
H37     0.1027   0.5033   0.3293     H
C38     0.9595   0.3163   0.2266     C
H39      0.895   0.3151   0.2731     H
C40      0.434   0.5511   0.4492     C
H41     0.3366    0.588   0.4501     H
C42     0.2449   0.1431   0.2979     C
N43     0.7959   0.4873   0.9286     N
H44     0.7938   0.4267    0.912     H
C45     0.9921   0.6137   0.2176     C
C46      0.857   0.6254   0.5726     C
C47     0.9529    0.627   0.5068     C
H48     0.0515   0.5916   0.5033     H
N49     0.2472   0.5483   0.1576     N
C50     0.1326   0.3562   0.5178     C
H51     0.1365   0.3983   0.4705     H
H52     0.2299   0.3151   0.5214     H
H53     0.0933   0.4052    0.558     H
C54     0.1021   0.2764   0.2228     C
C55     0.1449   0.3339   0.0943     C
H56     0.2106   0.3406   0.0488     H
N57     0.6387   0.8018   0.2495     N
H58     0.5888   0.7573   0.2431     H
N59      0.416   0.4564   0.6413     N
H60     0.5048   0.4165   0.6343     H
C61     0.1985   0.2838   0.1556     C
H62      0.299   0.2553   0.1516     H
C63     0.4778   0.4977   0.5138     C
C64     0.3795   0.4912   0.1607     C
C65     0.1862   0.4384   0.7103     C
N66     0.9176   0.5745   0.6358     N
H67     0.9981   0.5892   0.6392     H
C68     0.7567   0.7207   0.4478     C
C69      0.025   0.2169   0.6009     C
H70      0.977   0.2682   0.6391     H
H71     0.1217   0.1807   0.6083     H
H72     0.9692   0.1631   0.6039     H
C73     0.0366   0.2788   0.5234     C
C74     0.5435   0.5473   0.3818     C
H75     0.5202   0.5812    0.337     H
C76     0.9975   0.4824   0.9815     C
C77     0.8614   0.3829   0.4527     C
N78     0.5806   0.8766   0.3057     N
H79     0.5226   0.9389   0.2964     H
C80     0.3199   0.4484   0.2866     C
H81     0.3464   0.4163   0.3312     H
N82     0.9267   0.5128   0.9257     N
H83     0.9641   0.5496   0.8866     H
C84     0.0009   0.3737   0.0977     C
C85     0.8198   0.7154    0.145     C
C86     0.9051   0.6812   0.4441     C
H87     0.9725   0.6909   0.3998     H
C88     0.8638   0.5079   0.6891     C
C89     0.9048   0.3581   0.1661     C
H90     0.8038   0.3767   0.1694     H
C91     0.7145   0.4433   0.4516     C
C92     0.4181   0.4434   0.2243     C
H93     0.5153   0.4066   0.2239     H
C94     0.3248   0.4641   0.7166     C
C95     0.3929   0.3847   0.7681     C
H96      0.406   0.3118   0.7529     H
H97     0.3315   0.3922   0.8177     H
H98     0.4868    0.397   0.7684     H
C99     0.5358   0.5273    0.954     C
C100    0.6107   0.8555     0.37     C
C101    0.6826   0.4927    0.385     C
H102    0.7569   0.4886   0.3418     H
C103    0.2999   0.5812   0.7427     C
H104    0.3931   0.5985   0.7374     H
H105     0.249   0.5841   0.7945     H
H106    0.2423   0.6338   0.7126     H
C107    0.0884   0.1929   0.4671     C
C108    0.7073   0.6664   0.5776     C
H109    0.6408   0.6636   0.6233     H
C110      0.66   0.7108   0.5137     C
H111    0.5597   0.7347   0.5154     H
C112    0.6778   0.5552   0.9565     C
C113    0.5484   0.4242   0.9268     C
H114    0.5873   0.3663   0.9607     H
H115    0.6132   0.4181   0.8781     H
H116    0.4532   0.4182   0.9231     H
C117    0.7197   0.6406   0.1535     C
H118    0.7622    0.584   0.1186     H
H119    0.6266    0.682   0.1438     H
H120    0.7056   0.6076   0.2038     H
C121    0.4628   0.6257    0.903     C
H122    0.3687    0.617   0.8997     H
H123    0.5249   0.6258   0.8537     H
H124    0.4504   0.6941   0.9247     H
C125    0.8331   0.7798   0.0717     C
H126    0.9182   0.8094   0.0625     H
H127     0.747    0.839   0.0725     H
H128    0.8428   0.7326   0.0325     H
C129    0.3645   0.5097   0.5834     C
loop_
_geom_bond_atom_site_label_1
_geom_bond_atom_site_label_2
_geom_bond_distance
_geom_bond_site_symmetry_2
_ccdc_geom_bond_type
H8    S0     2.50165   1_545     S
S0    H8     2.50165   1_565     S
H11   O5     2.33853       .     S
O5    H11    2.33853       .     S
H11   N43    2.29759   1_554     S
N43   H11    2.29759   1_556     S
H19   O4     2.00983       .     S
O4    H19    2.00983       .     S
H19   N57    2.31958       .     S
N57   H19    2.31958       .     S
H21   S1     2.79523   1_554     S
S1    H21    2.79523   1_556     S
H21   N49    2.34416       .     S
N49   H21    2.34416       .     S
H23   O13    2.00148   1_455     S
O13   H23    2.00148   1_655     S
H23   N14    2.24880       .     S
N14   H23    2.24880       .     S
H27   N6     2.35308       .     S
N6    H27    2.35308       .     S
H32   S1     2.87366   1_554     S
S1    H32    2.87366   1_556     S
H32   N49    2.41128       .     S
N49   H32    2.41128       .     S
H60   S2     2.82102       .     S
S2    H60    2.82102       .     S
H60   N6     2.28157       .     S
N6    H60    2.28157       .     S
H67   O30    2.36389   1_655     S
O30   H67    2.36389   1_455     S
H67   N28    2.20805   1_655     S
N28   H67    2.20805   1_455     S
H79   S3     2.48895   1_565     S
S3    H79    2.48895   1_545     S
S0    C100   1.71882       .     S
C100  S0     1.71882       .     S
S1    C76    1.66033   1_455     S
C76   S1     1.66033   1_655     S
S2    C88    1.69270       .     S
C88   S2     1.69270       .     S
S3    C42    1.66570       .     S
C42   S3     1.66570       .     S
O4    C45    1.22881       .     S
C45   O4     1.22881       .     S
O5    C16    1.28133       .     S
C16   O5     1.28133       .     S
N6    C63    1.35491       .     S
C63   N6     1.35491       .     S
N6    C91    1.33869       .     S
C91   N6     1.33869       .     S
N7    H8     0.88052       .     S
H8    N7     0.88052       .     S
N7    N14    1.35157       .     S
N14   N7     1.35157       .     S
N7    C42    1.40144       .     S
C42   N7     1.40144       .     S
O9    C107   1.22146       .     S
C107  O9     1.22146       .     S
N10   H11    0.88062       .     S
H11   N10    0.88062       .     S
N10   C76    1.34668   1_554     S
C76   N10    1.34668   1_556     S
N10   C84    1.39350   1_655     S
C84   N10    1.39350   1_455     S
O12   C65    1.20329       .     S
C65   O12    1.20329       .     S
O13   C77    1.24864       .     S
C77   O13    1.24864       .     S
N14   H15    0.88011       .     S
H15   N14    0.88011       .     S
N14   C107   1.38217       .     S
C107  N14    1.38217       .     S
C16   N20    1.32742       .     S
N20   C16    1.32742       .     S
C16   C64    1.52845       .     S
C64   C16    1.52845       .     S
O17   C33    1.21702       .     S
C33   O17    1.21702       .     S
N18   H19    0.88013       .     S
H19   N18    0.88013       .     S
N18   C68    1.39383       .     S
C68   N18    1.39383       .     S
N18   C100   1.37019       .     S
C100  N18    1.37019       .     S
N20   H21    0.87970       .     S
H21   N20    0.87970       .     S
N20   C99    1.46425   1_554     S
C99   N20    1.46425   1_556     S
N22   H23    0.87904       .     S
H23   N22    0.87904       .     S
N22   C42    1.31394       .     S
C42   N22    1.31394       .     S
N22   C54    1.45099       .     S
C54   N22    1.45099       .     S
N24   H25    0.87986       .     S
H25   N24    0.87986       .     S
N24   N28    1.36114   1_655     S
N28   N24    1.36114   1_455     S
N24   C88    1.36266       .     S
C88   N24    1.36266       .     S
N26   H27    0.88039       .     S
H27   N26    0.88039       .     S
N26   C73    1.46734   1_655     S
C73   N26    1.46734   1_455     S
N26   C77    1.34358       .     S
C77   N26    1.34358       .     S
N28   H29    0.87923       .     S
H29   N28    0.87923       .     S
N28   C65    1.39810       .     S
C65   N28    1.39810       .     S
O30   C129   1.16473       .     S
C129  O30    1.16473       .     S
N31   H32    0.87893   1_655     S
H32   N31    0.87893   1_455     S
N31   C45    1.31924       .     S
C45   N31    1.31924       .     S
N31   C85    1.47169       .     S
C85   N31    1.47169       .     S
C33   N57    1.33585       .     S
N57   C33    1.33585       .     S
C33   C85    1.57561       .     S
C85   C33    1.57561       .     S
C34   C36    1.39213       .     S
C36   C34    1.39213       .     S
C34   C45    1.55194   1_455     S
C45   C34    1.55194   1_655     S
C34   N49    1.31809       .     S
N49   C34    1.31809       .     S
O35   C112   1.23281       .     S
C112  O35    1.23281       .     S
C36   H37    0.94864       .     S
H37   C36    0.94864       .     S
C36   C80    1.39759       .     S
C80   C36    1.39759       .     S
C38   H39    0.94982       .     S
H39   C38    0.94982       .     S
C38   C54    1.35218   1_655     S
C54   C38    1.35218   1_455     S
C38   C89    1.36397       .     S
C89   C38    1.36397       .     S
C40   H41    0.95049       .     S
H41   C40    0.95049       .     S
C40   C63    1.42123       .     S
C63   C40    1.42123       .     S
C40   C74    1.44956       .     S
C74   C40    1.44956       .     S
N43   H44    0.87989       .     S
H44   N43    0.87989       .     S
N43   N82    1.39846       .     S
N82   N43    1.39846       .     S
N43   C112   1.29597       .     S
C112  N43    1.29597       .     S
C46   C47    1.36529       .     S
C47   C46    1.36529       .     S
C46   N66    1.46172       .     S
N66   C46    1.46172       .     S
C46   C108   1.41551       .     S
C108  C46    1.41551       .     S
C47   H48    0.94963   1_655     S
H48   C47    0.94963   1_455     S
C47   C86    1.40917       .     S
C86   C47    1.40917       .     S
N49   C64    1.33000       .     S
C64   N49    1.33000       .     S
C50   H51    0.97999       .     S
H51   C50    0.97999       .     S
C50   H52    0.98045       .     S
H52   C50    0.98045       .     S
C50   H53    0.98110       .     S
H53   C50    0.98110       .     S
C50   C73    1.52187       .     S
C73   C50    1.52187       .     S
C54   C61    1.39535       .     S
C61   C54    1.39535       .     S
C55   H56    0.95007       .     S
H56   C55    0.95007       .     S
C55   C61    1.39618       .     S
C61   C55    1.39618       .     S
C55   C84    1.36600       .     S
C84   C55    1.36600       .     S
N57   H58    0.88052       .     S
H58   N57    0.88052       .     S
N57   N78    1.42529       .     S
N78   N57    1.42529       .     S
N59   H60    0.87945       .     S
H60   N59    0.87945       .     S
N59   C94    1.48094       .     S
C94   N59    1.48094       .     S
N59   C129   1.34480       .     S
C129  N59    1.34480       .     S
C61   H62    0.95017       .     S
H62   C61    0.95017       .     S
C63   C129   1.49580       .     S
C129  C63    1.49580       .     S
C64   C92    1.36488       .     S
C92   C64    1.36488       .     S
C65   C94    1.52040       .     S
C94   C65    1.52040       .     S
N66   H67    0.88018       .     S
H67   N66    0.88018       .     S
N66   C88    1.33869       .     S
C88   N66    1.33869       .     S
C68   C86    1.40518       .     S
C86   C68    1.40518       .     S
C68   C110   1.38398       .     S
C110  C68    1.38398       .     S
C69   H70    0.98025   1_455     S
H70   C69    0.98025   1_655     S
C69   H71    0.97995       .     S
H71   C69    0.97995       .     S
C69   H72    0.97916   1_455     S
H72   C69    0.97916   1_655     S
C69   C73    1.56483       .     S
C73   C69    1.56483       .     S
C73   C107   1.52433       .     S
C107  C73    1.52433       .     S
C74   H75    0.94878       .     S
H75   C74    0.94878       .     S
C74   C101   1.37942       .     S
C101  C74    1.37942       .     S
C76   N82    1.35724       .     S
N82   C76    1.35724       .     S
C77   C91    1.45717       .     S
C91   C77    1.45717       .     S
N78   H79    0.87964       .     S
H79   N78    0.87964       .     S
N78   C100   1.29046       .     S
C100  N78    1.29046       .     S
C80   H81    0.95022       .     S
H81   C80    0.95022       .     S
C80   C92    1.32359       .     S
C92   C80    1.32359       .     S
N82   H83    0.88099       .     S
H83   N82    0.88099       .     S
C84   C89    1.42842   1_455     S
C89   C84    1.42842   1_655     S
C85   C117   1.51908       .     S
C117  C85    1.51908       .     S
C85   C125   1.51302       .     S
C125  C85    1.51302       .     S
C86   H87    0.94978       .     S
H87   C86    0.94978       .     S
C89   H90    0.94972       .     S
H90   C89    0.94972       .     S
C91   C101   1.39795       .     S
C101  C91    1.39795       .     S
C92   H93    0.95003       .     S
H93   C92    0.95003       .     S
C94   C95    1.46281       .     S
C95   C94    1.46281       .     S
C94   C103   1.57908       .     S
C103  C94    1.57908       .     S
C95   H96    0.97976       .     S
H96   C95    0.97976       .     S
C95   H97    0.98140       .     S
H97   C95    0.98140       .     S
C95   H98    0.98022       .     S
H98   C95    0.98022       .     S
C99   C112   1.54515       .     S
C112  C99    1.54515       .     S
C99   C113   1.44191       .     S
C113  C99    1.44191       .     S
C99   C121   1.61094       .     S
C121  C99    1.61094       .     S
C101  H102   0.94996       .     S
H102  C101   0.94996       .     S
C103  H104   0.98037       .     S
H104  C103   0.98037       .     S
C103  H105   0.98133       .     S
H105  C103   0.98133       .     S
C103  H106   0.97925       .     S
H106  C103   0.97925       .     S
C108  H109   0.94987       .     S
H109  C108   0.94987       .     S
C108  C110   1.39357       .     S
C110  C108   1.39357       .     S
C110  H111   0.94949       .     S
H111  C110   0.94949       .     S
C113  H114   0.97919       .     S
H114  C113   0.97919       .     S
C113  H115   0.98023       .     S
H115  C113   0.98023       .     S
C113  H116   0.98053       .     S
H116  C113   0.98053       .     S
C117  H118   0.97868       .     S
H118  C117   0.97868       .     S
C117  H119   0.97970       .     S
H119  C117   0.97970       .     S
C117  H120   0.98033       .     S
H120  C117   0.98033       .     S
C121  H122   0.97972       .     S
H122  C121   0.97972       .     S
C121  H123   0.97952       .     S
H123  C121   0.97952       .     S
C121  H124   0.97984       .     S
H124  C121   0.97984       .     S
C125  H126   0.97986       .     S
H126  C125   0.97986       .     S
C125  H127   0.97939       .     S
H127  C125   0.97939       .     S
C125  H128   0.98034       .     S
H128  C125   0.98034       .     S
S0    H8     2.50165   1_565     S
H8    S0     2.50165   1_545     S
O5    H11    2.33853       .     S
H11   O5     2.33853       .     S
N43   H11    2.29759   1_556     S
H11   N43    2.29759   1_554     S
O4    H19    2.00983       .     S
H19   O4     2.00983       .     S
N57   H19    2.31958       .     S
H19   N57    2.31958       .     S
S1    H21    2.79523   1_556     S
H21   S1     2.79523   1_554     S
N49   H21    2.34416       .     S
H21   N49    2.34416       .     S
O13   H23    2.00148   1_655     S
H23   O13    2.00148   1_455     S
N14   H23    2.24880       .     S
H23   N14    2.24880       .     S
N6    H27    2.35308       .     S
H27   N6     2.35308       .     S
S1    H32    2.87366   1_556     S
H32   S1     2.87366   1_554     S
N49   H32    2.41128       .     S
H32   N49    2.41128       .     S
S2    H60    2.82102       .     S
H60   S2     2.82102       .     S
N6    H60    2.28157       .     S
H60   N6     2.28157       .     S
O30   H67    2.36389   1_455     S
H67   O30    2.36389   1_655     S
N28   H67    2.20805   1_455     S
H67   N28    2.20805   1_655     S
S3    H79    2.48895   1_545     S
H79   S3     2.48895   1_565     S
C100  S0     1.71882       .     S
S0    C100   1.71882       .     S
C76   S1     1.66033   1_655     S
S1    C76    1.66033   1_455     S
C88   S2     1.69270       .     S
S2    C88    1.69270       .     S
C42   S3     1.66570       .     S
S3    C42    1.66570       .     S
C45   O4     1.22881       .     S
O4    C45    1.22881       .     S
C16   O5     1.28133       .     S
O5    C16    1.28133       .     S
C63   N6     1.35491       .     S
N6    C63    1.35491       .     S
C91   N6     1.33869       .     S
N6    C91    1.33869       .     S
H8    N7     0.88052       .     S
N7    H8     0.88052       .     S
N14   N7     1.35157       .     S
N7    N14    1.35157       .     S
C42   N7     1.40144       .     S
N7    C42    1.40144       .     S
C107  O9     1.22146       .     S
O9    C107   1.22146       .     S
H11   N10    0.88062       .     S
N10   H11    0.88062       .     S
C76   N10    1.34668   1_556     S
N10   C76    1.34668   1_554     S
C84   N10    1.39350   1_455     S
N10   C84    1.39350   1_655     S
C65   O12    1.20329       .     S
O12   C65    1.20329       .     S
C77   O13    1.24864       .     S
O13   C77    1.24864       .     S
H15   N14    0.88011       .     S
N14   H15    0.88011       .     S
C107  N14    1.38217       .     S
N14   C107   1.38217       .     S
N20   C16    1.32742       .     S
C16   N20    1.32742       .     S
C64   C16    1.52845       .     S
C16   C64    1.52845       .     S
C33   O17    1.21702       .     S
O17   C33    1.21702       .     S
H19   N18    0.88013       .     S
N18   H19    0.88013       .     S
C68   N18    1.39383       .     S
N18   C68    1.39383       .     S
C100  N18    1.37019       .     S
N18   C100   1.37019       .     S
H21   N20    0.87970       .     S
N20   H21    0.87970       .     S
C99   N20    1.46425   1_556     S
N20   C99    1.46425   1_554     S
H23   N22    0.87904       .     S
N22   H23    0.87904       .     S
C42   N22    1.31394       .     S
N22   C42    1.31394       .     S
C54   N22    1.45099       .     S
N22   C54    1.45099       .     S
H25   N24    0.87986       .     S
N24   H25    0.87986       .     S
N28   N24    1.36114   1_455     S
N24   N28    1.36114   1_655     S
C88   N24    1.36266       .     S
N24   C88    1.36266       .     S
H27   N26    0.88039       .     S
N26   H27    0.88039       .     S
C73   N26    1.46734   1_455     S
N26   C73    1.46734   1_655     S
C77   N26    1.34358       .     S
N26   C77    1.34358       .     S
H29   N28    0.87923       .     S
N28   H29    0.87923       .     S
C65   N28    1.39810       .     S
N28   C65    1.39810       .     S
C129  O30    1.16473       .     S
O30   C129   1.16473       .     S
H32   N31    0.87893   1_455     S
N31   H32    0.87893   1_655     S
C45   N31    1.31924       .     S
N31   C45    1.31924       .     S
C85   N31    1.47169       .     S
N31   C85    1.47169       .     S
N57   C33    1.33585       .     S
C33   N57    1.33585       .     S
C85   C33    1.57561       .     S
C33   C85    1.57561       .     S
C36   C34    1.39213       .     S
C34   C36    1.39213       .     S
C45   C34    1.55194   1_655     S
C34   C45    1.55194   1_455     S
N49   C34    1.31809       .     S
C34   N49    1.31809       .     S
C112  O35    1.23281       .     S
O35   C112   1.23281       .     S
H37   C36    0.94864       .     S
C36   H37    0.94864       .     S
C80   C36    1.39759       .     S
C36   C80    1.39759       .     S
H39   C38    0.94982       .     S
C38   H39    0.94982       .     S
C54   C38    1.35218   1_455     S
C38   C54    1.35218   1_655     S
C89   C38    1.36397       .     S
C38   C89    1.36397       .     S
H41   C40    0.95049       .     S
C40   H41    0.95049       .     S
C63   C40    1.42123       .     S
C40   C63    1.42123       .     S
C74   C40    1.44956       .     S
C40   C74    1.44956       .     S
H44   N43    0.87989       .     S
N43   H44    0.87989       .     S
N82   N43    1.39846       .     S
N43   N82    1.39846       .     S
C112  N43    1.29597       .     S
N43   C112   1.29597       .     S
C47   C46    1.36529       .     S
C46   C47    1.36529       .     S
N66   C46    1.46172       .     S
C46   N66    1.46172       .     S
C108  C46    1.41551       .     S
C46   C108   1.41551       .     S
H48   C47    0.94963   1_455     S
C47   H48    0.94963   1_655     S
C86   C47    1.40917       .     S
C47   C86    1.40917       .     S
C64   N49    1.33000       .     S
N49   C64    1.33000       .     S
H51   C50    0.97999       .     S
C50   H51    0.97999       .     S
H52   C50    0.98045       .     S
C50   H52    0.98045       .     S
H53   C50    0.98110       .     S
C50   H53    0.98110       .     S
C73   C50    1.52187       .     S
C50   C73    1.52187       .     S
C61   C54    1.39535       .     S
C54   C61    1.39535       .     S
H56   C55    0.95007       .     S
C55   H56    0.95007       .     S
C61   C55    1.39618       .     S
C55   C61    1.39618       .     S
C84   C55    1.36600       .     S
C55   C84    1.36600       .     S
H58   N57    0.88052       .     S
N57   H58    0.88052       .     S
N78   N57    1.42529       .     S
N57   N78    1.42529       .     S
H60   N59    0.87945       .     S
N59   H60    0.87945       .     S
C94   N59    1.48094       .     S
N59   C94    1.48094       .     S
C129  N59    1.34480       .     S
N59   C129   1.34480       .     S
H62   C61    0.95017       .     S
C61   H62    0.95017       .     S
C129  C63    1.49580       .     S
C63   C129   1.49580       .     S
C92   C64    1.36488       .     S
C64   C92    1.36488       .     S
C94   C65    1.52040       .     S
C65   C94    1.52040       .     S
H67   N66    0.88018       .     S
N66   H67    0.88018       .     S
C88   N66    1.33869       .     S
N66   C88    1.33869       .     S
C86   C68    1.40518       .     S
C68   C86    1.40518       .     S
C110  C68    1.38398       .     S
C68   C110   1.38398       .     S
H70   C69    0.98025   1_655     S
C69   H70    0.98025   1_455     S
H71   C69    0.97995       .     S
C69   H71    0.97995       .     S
H72   C69    0.97916   1_655     S
C69   H72    0.97916   1_455     S
C73   C69    1.56483       .     S
C69   C73    1.56483       .     S
C107  C73    1.52433       .     S
C73   C107   1.52433       .     S
H75   C74    0.94878       .     S
C74   H75    0.94878       .     S
C101  C74    1.37942       .     S
C74   C101   1.37942       .     S
N82   C76    1.35724       .     S
C76   N82    1.35724       .     S
C91   C77    1.45717       .     S
C77   C91    1.45717       .     S
H79   N78    0.87964       .     S
N78   H79    0.87964       .     S
C100  N78    1.29046       .     S
N78   C100   1.29046       .     S
H81   C80    0.95022       .     S
C80   H81    0.95022       .     S
C92   C80    1.32359       .     S
C80   C92    1.32359       .     S
H83   N82    0.88099       .     S
N82   H83    0.88099       .     S
C89   C84    1.42842   1_655     S
C84   C89    1.42842   1_455     S
C117  C85    1.51908       .     S
C85   C117   1.51908       .     S
C125  C85    1.51302       .     S
C85   C125   1.51302       .     S
H87   C86    0.94978       .     S
C86   H87    0.94978       .     S
H90   C89    0.94972       .     S
C89   H90    0.94972       .     S
C101  C91    1.39795       .     S
C91   C101   1.39795       .     S
H93   C92    0.95003       .     S
C92   H93    0.95003       .     S
C95   C94    1.46281       .     S
C94   C95    1.46281       .     S
C103  C94    1.57908       .     S
C94   C103   1.57908       .     S
H96   C95    0.97976       .     S
C95   H96    0.97976       .     S
H97   C95    0.98140       .     S
C95   H97    0.98140       .     S
H98   C95    0.98022       .     S
C95   H98    0.98022       .     S
C112  C99    1.54515       .     S
C99   C112   1.54515       .     S
C113  C99    1.44191       .     S
C99   C113   1.44191       .     S
C121  C99    1.61094       .     S
C99   C121   1.61094       .     S
H102  C101   0.94996       .     S
C101  H102   0.94996       .     S
H104  C103   0.98037       .     S
C103  H104   0.98037       .     S
H105  C103   0.98133       .     S
C103  H105   0.98133       .     S
H106  C103   0.97925       .     S
C103  H106   0.97925       .     S
H109  C108   0.94987       .     S
C108  H109   0.94987       .     S
C110  C108   1.39357       .     S
C108  C110   1.39357       .     S
H111  C110   0.94949       .     S
C110  H111   0.94949       .     S
H114  C113   0.97919       .     S
C113  H114   0.97919       .     S
H115  C113   0.98023       .     S
C113  H115   0.98023       .     S
H116  C113   0.98053       .     S
C113  H116   0.98053       .     S
H118  C117   0.97868       .     S
C117  H118   0.97868       .     S
H119  C117   0.97970       .     S
C117  H119   0.97970       .     S
H120  C117   0.98033       .     S
C117  H120   0.98033       .     S
H122  C121   0.97972       .     S
C121  H122   0.97972       .     S
H123  C121   0.97952       .     S
C121  H123   0.97952       .     S
H124  C121   0.97984       .     S
C121  H124   0.97984       .     S
H126  C125   0.97986       .     S
C125  H126   0.97986       .     S
H127  C125   0.97939       .     S
C125  H127   0.97939       .     S
H128  C125   0.98034       .     S
C125  H128   0.98034       .     S
