data_I
_chemical_name_common  '/data/user2/wty/HOF/MOFDiff/mofdiff/data/test/205l-h'
_cell_length_a  5.13580
_cell_length_b 10.97270
_cell_length_c 20.94120
_cell_angle_alpha 90.00000
_cell_angle_beta  90.00000
_cell_angle_gamma 90.00000
_space_group_name_H-M_alt      'P 1'


loop_
_space_group_symop_operation_xyz
  'x, y, z' 

loop_
_atom_site_label
_atom_site_fract_x
_atom_site_fract_y
_atom_site_fract_z
_atom_site_type_symbol
P0     0.35626  0.52565  0.47656     P
O1      0.1707  0.62928  0.48811     O
O2      0.5305   0.5148  0.53726     O
H3     0.62642  0.45305  0.53407     H
O4       0.015   0.8289  0.14393     O
H5     0.91027  0.85936  0.11758     H
O6      0.2385  0.40481  0.45758     O
O7      0.9172   0.9961  0.20035     O
N8      0.7245   0.6795  0.42659     N
H9     0.85751  0.65771  0.45292     H
H10    0.62135  0.73244  0.44849     H
C11     0.2755   0.9216   0.2972     C
H12    0.16714  0.98913  0.30722     H
C13      0.569   0.5687  0.41178     C
H14    0.68886  0.50035  0.40238     H
H15    0.46325  0.58396  0.37307     H
C16     0.3985   0.7598  0.22531     C
H17    0.37445  0.71674   0.1864     H
C18     0.0382   0.9028  0.19408     C
C19     0.6293    0.787  0.32463     C
C20     0.8373   0.7454     0.37     C
H21    0.93727  0.81698  0.38507     H
H22    0.95902  0.69055  0.34726     H
C23     0.2396   0.8585  0.24011     C
C24      0.469   0.8859  0.33938     C
H25    0.49262  0.92883  0.37836     H
C26     0.5922   0.7245   0.2676     C
H27    0.70042    0.657  0.25751     H
O28     0.8636   0.3435  0.54631     O
H29    0.98731  0.36226  0.51966     H
H30      0.832    0.269    0.549     H
loop_
_geom_bond_atom_site_label_1
_geom_bond_atom_site_label_2
_geom_bond_distance
_geom_bond_site_symmetry_2
_ccdc_geom_bond_type
H3    O28    1.73044       .     S
O28   H3     1.73044       .     S
H9    O1     1.79655   1_655     S
O1    H9     1.79655   1_455     S
H29   O6     1.89006   1_655     S
O6    H29    1.89006   1_455     S
P0    O1     1.50323       .     S
O1    P0     1.50323       .     S
P0    O2     1.55908       .     S
O2    P0     1.55908       .     S
P0    O6     1.51059       .     S
O6    P0     1.51059       .     S
P0    C13    1.80476       .     S
C13   P0     1.80476       .     S
O2    H3     0.84038       .     S
H3    O2     0.84038       .     S
O4    H5     0.83994   1_455     S
H5    O4     0.83994   1_655     S
O4    C18    1.33216       .     S
C18   O4     1.33216       .     S
O7    C18    1.20478   1_655     S
C18   O7     1.20478   1_455     S
N8    H9     0.90985       .     S
H9    N8     0.90985       .     S
N8    H10    0.91017       .     S
H10   N8     0.91017       .     S
N8    C13    1.48731       .     S
C13   N8     1.48731       .     S
N8    C20    1.50428       .     S
C20   N8     1.50428       .     S
C11   H12    0.95016       .     S
H12   C11    0.95016       .     S
C11   C23    1.39380       .     S
C23   C11    1.39380       .     S
C11   C24    1.38610       .     S
C24   C11    1.38610       .     S
C13   H14    0.99003       .     S
H14   C13    0.99003       .     S
C13   H15    0.99002       .     S
H15   C13    0.99002       .     S
C16   H17    0.94996       .     S
H17   C16    0.94996       .     S
C16   C23    1.39102       .     S
C23   C16    1.39102       .     S
C16   C26    1.38707       .     S
C26   C16    1.38707       .     S
C18   C23    1.49510       .     S
C23   C18    1.49510       .     S
C19   C20    1.50074       .     S
C20   C19    1.50074       .     S
C19   C24    1.39672       .     S
C24   C19    1.39672       .     S
C19   C26    1.39029       .     S
C26   C19    1.39029       .     S
C20   H21    0.99000       .     S
H21   C20    0.99000       .     S
C20   H22    0.98984       .     S
H22   C20    0.98984       .     S
C24   H25    0.95023       .     S
H25   C24    0.95023       .     S
C26   H27    0.94980       .     S
H27   C26    0.94980       .     S
O28   H29    0.87034       .     S
H29   O28    0.87034       .     S
O28   H30    0.83532       .     S
H30   O28    0.83532       .     S
O28   H3     1.73044       .     S
H3    O28    1.73044       .     S
O1    H9     1.79655   1_455     S
H9    O1     1.79655   1_655     S
O6    H29    1.89006   1_455     S
H29   O6     1.89006   1_655     S
O1    P0     1.50323       .     S
P0    O1     1.50323       .     S
O2    P0     1.55908       .     S
P0    O2     1.55908       .     S
O6    P0     1.51059       .     S
P0    O6     1.51059       .     S
C13   P0     1.80476       .     S
P0    C13    1.80476       .     S
H3    O2     0.84038       .     S
O2    H3     0.84038       .     S
H5    O4     0.83994   1_655     S
O4    H5     0.83994   1_455     S
C18   O4     1.33216       .     S
O4    C18    1.33216       .     S
C18   O7     1.20478   1_455     S
O7    C18    1.20478   1_655     S
H9    N8     0.90985       .     S
N8    H9     0.90985       .     S
H10   N8     0.91017       .     S
N8    H10    0.91017       .     S
C13   N8     1.48731       .     S
N8    C13    1.48731       .     S
C20   N8     1.50428       .     S
N8    C20    1.50428       .     S
H12   C11    0.95016       .     S
C11   H12    0.95016       .     S
C23   C11    1.39380       .     S
C11   C23    1.39380       .     S
C24   C11    1.38610       .     S
C11   C24    1.38610       .     S
H14   C13    0.99003       .     S
C13   H14    0.99003       .     S
H15   C13    0.99002       .     S
C13   H15    0.99002       .     S
H17   C16    0.94996       .     S
C16   H17    0.94996       .     S
C23   C16    1.39102       .     S
C16   C23    1.39102       .     S
C26   C16    1.38707       .     S
C16   C26    1.38707       .     S
C23   C18    1.49510       .     S
C18   C23    1.49510       .     S
C20   C19    1.50074       .     S
C19   C20    1.50074       .     S
C24   C19    1.39672       .     S
C19   C24    1.39672       .     S
C26   C19    1.39029       .     S
C19   C26    1.39029       .     S
H21   C20    0.99000       .     S
C20   H21    0.99000       .     S
H22   C20    0.98984       .     S
C20   H22    0.98984       .     S
H25   C24    0.95023       .     S
C24   H25    0.95023       .     S
H27   C26    0.94980       .     S
C26   H27    0.94980       .     S
H29   O28    0.87034       .     S
O28   H29    0.87034       .     S
H30   O28    0.83532       .     S
O28   H30    0.83532       .     S
