data_I
_chemical_name_common  '/data/user2/wty/HOF/MOFDiff/mofdiff/data/test/205l-et'
_cell_length_a  4.98680
_cell_length_b 10.92570
_cell_length_c 22.69290
_cell_angle_alpha 90.00000
_cell_angle_beta  94.06900
_cell_angle_gamma 90.00000
_space_group_name_H-M_alt      'P 1'


loop_
_space_group_symop_operation_xyz
  'x, y, z' 

loop_
_atom_site_label
_atom_site_fract_x
_atom_site_fract_y
_atom_site_fract_z
_atom_site_type_symbol
P0     0.52051  0.72027  0.46767     P
O1      0.3566  0.74697  0.52386     O
O2      0.6982  0.61333  0.48475     O
O3       0.642  0.83404  0.44508     O
O4      0.6916  0.41411   0.1514     O
H5     0.76565  0.38297  0.12396     H
O6      0.7931  0.23517   0.1956     O
N7      0.1372  0.55378  0.42762     N
H8       0.017  0.57274  0.45331     H
H9     0.25887  0.50487  0.44603     H
C10     0.5127   0.3769  0.24247     C
C11     0.1815   0.4464  0.33062     C
C12     0.6833   0.3344  0.19485     C
C13     0.3572   0.3473  0.33962     C
H14     0.3645  0.30449  0.37513     H
C15     0.5205   0.3129  0.29542     C
H16    0.63608  0.24652  0.30132     H
C17     0.3422   0.4767  0.23393     C
H18    0.33991  0.52113  0.19896     H
C19     0.2738   0.6681  0.41064     C
H20     0.1402  0.73162  0.40281     H
H21    0.36202   0.6538  0.37453     H
C22     0.9966   0.4838  0.37723     C
H23     0.8532  0.53402  0.35907     H
H24    0.91553  0.41094  0.39275     H
C25     0.1743   0.5103  0.27775     C
H26    0.05691  0.57585  0.27147     H
C27     0.2224    0.866  0.52878     C
H28    0.35533  0.92884  0.53879     H
H29    0.12955   0.8873  0.49117     H
C30      0.032   0.8604  0.57387     C
H31    0.90567  0.79565   0.5648     H
H32    0.93784  0.93688  0.57524     H
H33    0.12608  0.84499  0.61152     H
loop_
_geom_bond_atom_site_label_1
_geom_bond_atom_site_label_2
_geom_bond_distance
_geom_bond_site_symmetry_2
_ccdc_geom_bond_type
H8    O2     1.84231   1_455     S
O2    H8     1.84231   1_655     S
H9    O2     2.58900       .     S
O2    H9     2.58900       .     S
P0    O1     1.58967       .     S
O1    P0     1.58967       .     S
P0    O2     1.50060       .     S
O2    P0     1.50060       .     S
P0    O3     1.48963       .     S
O3    P0     1.48963       .     S
P0    C19    1.81313       .     S
C19   P0     1.81313       .     S
O1    C27    1.47044       .     S
C27   O1     1.47044       .     S
O4    H5     0.82006       .     S
H5    O4     0.82006       .     S
O4    C12    1.31839       .     S
C12   O4     1.31839       .     S
O6    C12    1.21416       .     S
C12   O6     1.21416       .     S
N7    H8     0.88976       .     S
H8    N7     0.88976       .     S
N7    H9     0.89009       .     S
H9    N7     0.89009       .     S
N7    C19    1.48655       .     S
C19   N7     1.48655       .     S
N7    C22    1.50665   1_455     S
C22   N7     1.50665   1_655     S
C10   C12    1.49587       .     S
C12   C10    1.49587       .     S
C10   C15    1.38839       .     S
C15   C10    1.38839       .     S
C10   C17    1.38782       .     S
C17   C10    1.38782       .     S
C11   C13    1.39869       .     S
C13   C11    1.39869       .     S
C11   C22    1.50809   1_455     S
C22   C11    1.50809   1_655     S
C11   C25    1.38638       .     S
C25   C11    1.38638       .     S
C13   H14    0.93021       .     S
H14   C13    0.93021       .     S
C13   C15    1.38795       .     S
C15   C13    1.38795       .     S
C15   H16    0.93014       .     S
H16   C15    0.93014       .     S
C17   H18    0.92965       .     S
H18   C17    0.92965       .     S
C17   C25    1.39384       .     S
C25   C17    1.39384       .     S
C19   H20    0.96968       .     S
H20   C19    0.96968       .     S
C19   H21    0.96984       .     S
H21   C19    0.96984       .     S
C22   H23    0.96976       .     S
H23   C22    0.96976       .     S
C22   H24    0.97025       .     S
H24   C22    0.97025       .     S
C25   H26    0.92956       .     S
H26   C25    0.92956       .     S
C27   H28    0.97007       .     S
H28   C27    0.97007       .     S
C27   H29    0.97000       .     S
H29   C27    0.97000       .     S
C27   C30    1.44573       .     S
C30   C27    1.44573       .     S
C30   H31    0.95985   1_455     S
H31   C30    0.95985   1_655     S
C30   H32    0.96008   1_455     S
H32   C30    0.96008   1_655     S
C30   H33    0.95997       .     S
H33   C30    0.95997       .     S
O2    H8     1.84231   1_655     S
H8    O2     1.84231   1_455     S
O2    H9     2.58900       .     S
H9    O2     2.58900       .     S
O1    P0     1.58967       .     S
P0    O1     1.58967       .     S
O2    P0     1.50060       .     S
P0    O2     1.50060       .     S
O3    P0     1.48963       .     S
P0    O3     1.48963       .     S
C19   P0     1.81313       .     S
P0    C19    1.81313       .     S
C27   O1     1.47044       .     S
O1    C27    1.47044       .     S
H5    O4     0.82006       .     S
O4    H5     0.82006       .     S
C12   O4     1.31839       .     S
O4    C12    1.31839       .     S
C12   O6     1.21416       .     S
O6    C12    1.21416       .     S
H8    N7     0.88976       .     S
N7    H8     0.88976       .     S
H9    N7     0.89009       .     S
N7    H9     0.89009       .     S
C19   N7     1.48655       .     S
N7    C19    1.48655       .     S
C22   N7     1.50665   1_655     S
N7    C22    1.50665   1_455     S
C12   C10    1.49587       .     S
C10   C12    1.49587       .     S
C15   C10    1.38839       .     S
C10   C15    1.38839       .     S
C17   C10    1.38782       .     S
C10   C17    1.38782       .     S
C13   C11    1.39869       .     S
C11   C13    1.39869       .     S
C22   C11    1.50809   1_655     S
C11   C22    1.50809   1_455     S
C25   C11    1.38638       .     S
C11   C25    1.38638       .     S
H14   C13    0.93021       .     S
C13   H14    0.93021       .     S
C15   C13    1.38795       .     S
C13   C15    1.38795       .     S
H16   C15    0.93014       .     S
C15   H16    0.93014       .     S
H18   C17    0.92965       .     S
C17   H18    0.92965       .     S
C25   C17    1.39384       .     S
C17   C25    1.39384       .     S
H20   C19    0.96968       .     S
C19   H20    0.96968       .     S
H21   C19    0.96984       .     S
C19   H21    0.96984       .     S
H23   C22    0.96976       .     S
C22   H23    0.96976       .     S
H24   C22    0.97025       .     S
C22   H24    0.97025       .     S
H26   C25    0.92956       .     S
C25   H26    0.92956       .     S
H28   C27    0.97007       .     S
C27   H28    0.97007       .     S
H29   C27    0.97000       .     S
C27   H29    0.97000       .     S
C30   C27    1.44573       .     S
C27   C30    1.44573       .     S
H31   C30    0.95985   1_655     S
C30   H31    0.95985   1_455     S
H32   C30    0.96008   1_655     S
C30   H32    0.96008   1_455     S
H33   C30    0.95997       .     S
C30   H33    0.95997       .     S
