data_I
_chemical_name_common  '/data/user2/wty/HOF/MOFDiff/mofdiff/data/test/205l-ch3'
_cell_length_a  4.98260
_cell_length_b 10.86590
_cell_length_c 22.04130
_cell_angle_alpha 90.00000
_cell_angle_beta  94.44700
_cell_angle_gamma 90.00000
_space_group_name_H-M_alt      'P 1'


loop_
_space_group_symop_operation_xyz
  'x, y, z' 

loop_
_atom_site_label
_atom_site_fract_x
_atom_site_fract_y
_atom_site_fract_z
_atom_site_type_symbol
P0      0.4977  0.27624  0.52887     P
O1      0.3844   0.1584   0.5499     O
O2      0.3113   0.3823   0.5126     O
O3      0.6616   0.2569   0.4702     O
O4      0.2999   0.5775   0.8512     O
H5     0.21438  0.60643  0.87814     H
O6       0.195   0.7581   0.8057     O
N7      0.8755   0.4447   0.5717     N
H8     0.75109  0.49367  0.55333     H
H9     0.99393  0.42701  0.54472     H
C10     0.4867   0.6182   0.7589     C
C11     0.4933   0.6873   0.7054     C
H12    0.38166  0.75542  0.69922     H
C13     0.8346   0.5526   0.6703     C
C14     0.6627    0.655   0.6624     C
H15    0.66466  0.70174  0.62712     H
C16     0.7434   0.3287   0.5887     C
H17    0.65434  0.34179  0.62581     H
H18    0.87915  0.26557  0.59675     H
C19     0.3105   0.6589   0.8067     C
C20     0.6538   0.5159   0.7672     C
H21    0.64937  0.46883  0.80238     H
C22     0.8266   0.4837   0.7236     C
H23    0.93832  0.41561   0.7298     H
C24     0.0186   0.5143   0.6237     C
H25    0.16012  0.46293  0.64284     H
H26    0.10248  0.58695  0.60789     H
C27      0.793     0.14   0.4607     C
H28    0.85739   0.1385  0.42079     H
H29    0.66672  0.07421  0.46443     H
H30    0.94183  0.12997  0.49067     H
loop_
_geom_bond_atom_site_label_1
_geom_bond_atom_site_label_2
_geom_bond_distance
_geom_bond_site_symmetry_2
_ccdc_geom_bond_type
H9    O2     1.84701   1_655     S
O2    H9     1.84701   1_455     S
P0    O1     1.48783       .     S
O1    P0     1.48783       .     S
P0    O2     1.50587       .     S
O2    P0     1.50587       .     S
P0    O3     1.59597       .     S
O3    P0     1.59597       .     S
P0    C16    1.81999       .     S
C16   P0     1.81999       .     S
O3    C27    1.45163       .     S
C27   O3     1.45163       .     S
O4    H5     0.81989       .     S
H5    O4     0.81989       .     S
O4    C19    1.32483       .     S
C19   O4     1.32483       .     S
O6    C19    1.22130       .     S
C19   O6     1.22130       .     S
N7    H8     0.89018       .     S
H8    N7     0.89018       .     S
N7    H9     0.89062       .     S
H9    N7     0.89062       .     S
N7    C16    1.48344       .     S
C16   N7     1.48344       .     S
N7    C24    1.50574   1_655     S
C24   N7     1.50574   1_455     S
C10   C11    1.40049       .     S
C11   C10    1.40049       .     S
C10   C19    1.48990       .     S
C19   C10    1.48990       .     S
C10   C20    1.39236       .     S
C20   C10    1.39236       .     S
C11   H12    0.92957       .     S
H12   C11    0.92957       .     S
C11   C14    1.36306       .     S
C14   C11    1.36306       .     S
C13   C14    1.40671       .     S
C14   C13    1.40671       .     S
C13   C22    1.39624       .     S
C22   C13    1.39624       .     S
C13   C24    1.48820   1_655     S
C24   C13    1.48819   1_455     S
C14   H15    0.92946       .     S
H15   C14    0.92946       .     S
C16   H17    0.97081       .     S
H17   C16    0.97081       .     S
C16   H18    0.97001       .     S
H18   C16    0.97001       .     S
C20   H21    0.93059       .     S
H21   C20    0.93059       .     S
C20   C22    1.38404       .     S
C22   C20    1.38404       .     S
C22   H23    0.92959       .     S
H23   C22    0.92959       .     S
C24   H25    0.96986       .     S
H25   C24    0.96986       .     S
C24   H26    0.97049       .     S
H26   C24    0.97049       .     S
C27   H28    0.95957       .     S
H28   C27    0.95957       .     S
C27   H29    0.96006       .     S
H29   C27    0.96006       .     S
C27   H30    0.96031       .     S
H30   C27    0.96031       .     S
O2    H9     1.84701   1_455     S
H9    O2     1.84701   1_655     S
O1    P0     1.48783       .     S
P0    O1     1.48783       .     S
O2    P0     1.50587       .     S
P0    O2     1.50587       .     S
O3    P0     1.59597       .     S
P0    O3     1.59597       .     S
C16   P0     1.81999       .     S
P0    C16    1.81999       .     S
C27   O3     1.45163       .     S
O3    C27    1.45163       .     S
H5    O4     0.81989       .     S
O4    H5     0.81989       .     S
C19   O4     1.32483       .     S
O4    C19    1.32483       .     S
C19   O6     1.22130       .     S
O6    C19    1.22130       .     S
H8    N7     0.89018       .     S
N7    H8     0.89018       .     S
H9    N7     0.89062       .     S
N7    H9     0.89062       .     S
C16   N7     1.48344       .     S
N7    C16    1.48344       .     S
C24   N7     1.50574   1_455     S
N7    C24    1.50574   1_655     S
C11   C10    1.40049       .     S
C10   C11    1.40049       .     S
C19   C10    1.48990       .     S
C10   C19    1.48990       .     S
C20   C10    1.39236       .     S
C10   C20    1.39236       .     S
H12   C11    0.92957       .     S
C11   H12    0.92957       .     S
C14   C11    1.36306       .     S
C11   C14    1.36306       .     S
C14   C13    1.40671       .     S
C13   C14    1.40671       .     S
C22   C13    1.39624       .     S
C13   C22    1.39624       .     S
C24   C13    1.48819   1_455     S
C13   C24    1.48820   1_655     S
H15   C14    0.92946       .     S
C14   H15    0.92946       .     S
H17   C16    0.97081       .     S
C16   H17    0.97081       .     S
H18   C16    0.97001       .     S
C16   H18    0.97001       .     S
H21   C20    0.93059       .     S
C20   H21    0.93059       .     S
C22   C20    1.38404       .     S
C20   C22    1.38404       .     S
H23   C22    0.92959       .     S
C22   H23    0.92959       .     S
H25   C24    0.96986       .     S
C24   H25    0.96986       .     S
H26   C24    0.97049       .     S
C24   H26    0.97049       .     S
H28   C27    0.95957       .     S
C27   H28    0.95957       .     S
H29   C27    0.96006       .     S
C27   H29    0.96006       .     S
H30   C27    0.96031       .     S
C27   H30    0.96031       .     S
