data_I
_chemical_name_common  '/data/user2/wty/HOF/MOFDiff/mofdiff/data/test/207-hof-pytta'
_cell_length_a 26.85180
_cell_length_b  7.48385
_cell_length_c 29.41200
_cell_angle_alpha 90.00000
_cell_angle_beta  90.00000
_cell_angle_gamma 90.00000
_space_group_name_H-M_alt      'P 1'


loop_
_space_group_symop_operation_xyz
  'x, y, z' 

loop_
_atom_site_label
_atom_site_fract_x
_atom_site_fract_y
_atom_site_fract_z
_atom_site_type_symbol
C0     0.47443   0.6671  0.73998     C
H1      0.4734    0.629   0.7043     H
C2     0.45386   0.5171  0.75392     C
H3      0.4519    0.778   0.7484     H
C4     0.21992   0.5635  0.64691     C
C5     0.23652   0.5835  0.60136     C
C6      0.3421   0.5845  0.70987     C
H7      0.3765   0.6025   0.7038     H
C8     0.16866    0.535  0.65858     C
H9      0.1446   0.5274   0.6349     H
C10    0.27565   0.5399  0.76513     C
C11    0.28727   0.5961  0.59289     C
H12      0.298   0.6076   0.5622     H
C13    0.25584   0.5609  0.68271     C
C14    0.23978   0.5424  0.72922     C
C15     0.1879   0.5264  0.73935     C
N16    0.51799   0.6415  0.54842     N
H17     0.5325   0.5387   0.5491     H
H18     0.5138    0.673   0.5204     H
C19    0.30776   0.5761  0.67256     C
C20    0.38738   0.7361   0.5779     C
H21     0.3622   0.8171   0.5685     H
C22    0.37609   0.6101  0.61168     C
N23    0.38322   0.4301  0.96667     N
H24     0.3989     0.33   0.9646     H
C25    0.32336   0.5925    0.627     C
C26    0.28293   0.5933  0.89069     C
H27     0.2551   0.6716   0.8921     H
C28    0.20217   0.5842   0.5618     C
C29    0.12572   0.6771  0.52428     C
H30     0.0957   0.7444    0.525     H
C31    0.20852   0.5007  0.81901     C
H32     0.1979   0.4844   0.8495     H
N33    0.10279   0.5575  0.45027     N
H34      0.085   0.6536   0.4489     H
C35    0.11917   0.5015  0.79938     C
C36    0.17233   0.5084  0.78506     C
C37    0.15355   0.5186  0.70209     C
H38     0.1191   0.5013   0.7082     H
C39    0.21339   0.4824  0.52305     C
H40     0.2435   0.4161   0.5221     H
C41    0.15825    0.684  0.56092     C
H42     0.1504   0.7586   0.5861     H
C43    0.32683   0.5676  0.75341     C
H44     0.3509   0.5743   0.7771     H
C45    0.02156   0.5105  0.83583     C
C46      0.415   0.4987  0.62562     C
H47     0.4094   0.4151   0.6494     H
C48    0.33567   0.3944  0.84921     C
H49     0.3442   0.3344   0.8218     H
C50    0.03658   0.6345  0.80338     C
H51     0.0139    0.724   0.7935     H
C52    0.35321   0.4549  0.92821     C
C53    0.25932   0.5158  0.81054     C
C54    0.36517   0.3701  0.88742     C
H55     0.3937   0.2951   0.8858     H
C56    0.31215   0.5684  0.92907     C
H57      0.304   0.6297   0.9564     H
C58    0.08428   0.6289  0.78524     C
H59     0.0935   0.7135   0.7627     H
C60    0.18137   0.4766  0.48607     C
H61     0.1899   0.4069   0.4602     H
C62    0.47148   0.6292  0.57022     C
C63     0.1033   0.3752  0.83146     C
H64     0.1258   0.2855   0.8414     H
C65    0.13675   0.5722  0.48646     C
C66    0.43374   0.7469  0.55785     C
H67     0.4399   0.8355   0.5354     H
C68    0.29374   0.5048  0.84986     C
C69    0.05525   0.3785  0.84907     C
H70     0.0453     0.29   0.8703     H
N71    0.97458   0.5248  0.85706     N
H72     0.9639   0.4194   0.8633     H
C73    0.46196   0.5078  0.60538     C
H74     0.4878   0.4307   0.6156     H
H75     0.1189    0.533   0.4234     H
H76     0.3682    0.463   0.9943     H
H77     0.9515    0.581    0.838     H
O78    0.48759   0.8263  0.45207     O
H79     0.5034    0.861   0.4288     H
H80      0.459    0.913   0.4522     H
loop_
_geom_bond_atom_site_label_1
_geom_bond_atom_site_label_2
_geom_bond_distance
_geom_bond_site_symmetry_2
_ccdc_geom_bond_type
H18   O78    2.41879       .     S
O78   H18    2.41879       .     S
C0    H1     1.08782       .     S
H1    C0     1.08782       .     S
C0    C2     1.31657       .     S
C2    C0     1.31657       .     S
C0    H3     1.05648       .     S
H3    C0     1.05648       .     S
C4    C5     1.41983       .     S
C5    C4     1.41983       .     S
C4    C8     1.43452       .     S
C8    C4     1.43452       .     S
C4    C13    1.42807       .     S
C13   C4     1.42807       .     S
C5    C11    1.38852       .     S
C11   C5     1.38852       .     S
C5    C28    1.48479       .     S
C28   C5     1.48479       .     S
C6    H7     0.95039       .     S
H7    C6     0.95039       .     S
C6    C19    1.43472       .     S
C19   C6     1.43472       .     S
C6    C43    1.35057       .     S
C43   C6     1.35057       .     S
C8    H9     0.95168       .     S
H9    C8     0.95168       .     S
C8    C37    1.34809       .     S
C37   C8     1.34809       .     S
C10   C14    1.42954       .     S
C14   C10    1.42954       .     S
C10   C43    1.43193       .     S
C43   C10    1.43193       .     S
C10   C53    1.41726       .     S
C53   C10    1.41726       .     S
C11   H12    0.95142       .     S
H12   C11    0.95142       .     S
C11   C25    1.39511       .     S
C25   C11    1.39511       .     S
C13   C14    1.44098       .     S
C14   C13    1.44098       .     S
C13   C19    1.43028       .     S
C19   C13    1.43028       .     S
C14   C15    1.42960       .     S
C15   C14    1.42960       .     S
C15   C36    1.41436       .     S
C36   C15    1.41436       .     S
C15   C37    1.43357       .     S
C37   C15    1.43357       .     S
N16   H17    0.86261       .     S
H17   N16    0.86261       .     S
N16   H18    0.86453       .     S
H18   N16    0.86453       .     S
N16   C62    1.40687       .     S
C62   N16    1.40687       .     S
C19   C25    1.40931       .     S
C25   C19    1.40931       .     S
C20   H21    0.94924       .     S
H21   C20    0.94924       .     S
C20   C22    1.40293       .     S
C22   C20    1.40293       .     S
C20   C66    1.37983       .     S
C66   C20    1.37983       .     S
C22   C25    1.49169       .     S
C25   C22    1.49169       .     S
C22   C46    1.39813       .     S
C46   C22    1.39813       .     S
N23   H24    0.86150       .     S
H24   N23    0.86150       .     S
N23   C52    1.40121       .     S
C52   N23    1.40121       .     S
N23   H76    0.94005       .     S
H76   N23    0.94005       .     S
C26   H27    0.95054       .     S
H27   C26    0.95054       .     S
C26   C56    1.38730       .     S
C56   C26    1.38730       .     S
C26   C68    1.40181       .     S
C68   C26    1.40181       .     S
C28   C39    1.40362       .     S
C39   C28    1.40362       .     S
C28   C41    1.39619       .     S
C41   C28    1.39619       .     S
C29   H30    0.95074       .     S
H30   C29    0.95074       .     S
C29   C41    1.38816       .     S
C41   C29    1.38816       .     S
C29   C65    1.39334       .     S
C65   C29    1.39334       .     S
C31   H32    0.94889       .     S
H32   C31    0.94889       .     S
C31   C36    1.39453       .     S
C36   C31    1.39453       .     S
C31   C53    1.39123       .     S
C53   C31    1.39123       .     S
N33   H34    0.86433       .     S
H34   N33    0.86433       .     S
N33   C65    1.40593       .     S
C65   N33    1.40593       .     S
N33   H75    0.91941       .     S
H75   N33    0.91941       .     S
C35   C36    1.48918       .     S
C36   C35    1.48918       .     S
C35   C58    1.39990       .     S
C58   C35    1.39990       .     S
C35   C63    1.40189       .     S
C63   C35    1.40189       .     S
C37   H38    0.95119       .     S
H38   C37    0.95119       .     S
C39   H40    0.94903       .     S
H40   C39    0.94903       .     S
C39   C60    1.38713       .     S
C60   C39    1.38713       .     S
C41   H42    0.95111       .     S
H42   C41    0.95111       .     S
C43   H44    0.95170       .     S
H44   C43    0.95170       .     S
C45   C50    1.39095       .     S
C50   C45    1.39095       .     S
C45   C69    1.39495       .     S
C69   C45    1.39495       .     S
C45   N71    1.41164   1_455     S
N71   C45    1.41164   1_655     S
C46   H47    0.95039       .     S
H47   C46    0.95039       .     S
C46   C73    1.39608       .     S
C73   C46    1.39608       .     S
C48   H49    0.95080       .     S
H49   C48    0.95080       .     S
C48   C54    1.38692       .     S
C54   C48    1.38692       .     S
C48   C68    1.39665       .     S
C68   C48    1.39665       .     S
C50   H51    0.95077       .     S
H51   C50    0.95077       .     S
C50   C58    1.38814       .     S
C58   C50    1.38814       .     S
C52   C54    1.39471       .     S
C54   C52    1.39471       .     S
C52   C56    1.39202       .     S
C56   C52    1.39202       .     S
C53   C68    1.48271       .     S
C68   C53    1.48271       .     S
C54   H55    0.95089       .     S
H55   C54    0.95089       .     S
C56   H57    0.95105       .     S
H57   C56    0.95105       .     S
C58   H59    0.94955       .     S
H59   C58    0.94955       .     S
C60   H61    0.95053       .     S
H61   C60    0.95053       .     S
C60   C65    1.39554       .     S
C65   C60    1.39554       .     S
C62   C66    1.39112       .     S
C66   C62    1.39112       .     S
C62   C73    1.40007       .     S
C73   C62    1.40007       .     S
C63   H64    0.94928       .     S
H64   C63    0.94928       .     S
C63   C69    1.39053       .     S
C69   C63    1.39053       .     S
C66   H67    0.95027       .     S
H67   C66    0.95027       .     S
C69   H70    0.94866       .     S
H70   C69    0.94866       .     S
N71   H72    0.85914       .     S
H72   N71    0.85914       .     S
N71   H77    0.93554       .     S
H77   N71    0.93554       .     S
C73   H74    0.95117       .     S
H74   C73    0.95117       .     S
O78   H79    0.84622       .     S
H79   O78    0.84622       .     S
O78   H80    1.00517       .     S
H80   O78    1.00517       .     S
O78   H18    2.41879       .     S
H18   O78    2.41879       .     S
H1    C0     1.08782       .     S
C0    H1     1.08782       .     S
C2    C0     1.31657       .     S
C0    C2     1.31657       .     S
H3    C0     1.05648       .     S
C0    H3     1.05648       .     S
C5    C4     1.41983       .     S
C4    C5     1.41983       .     S
C8    C4     1.43452       .     S
C4    C8     1.43452       .     S
C13   C4     1.42807       .     S
C4    C13    1.42807       .     S
C11   C5     1.38852       .     S
C5    C11    1.38852       .     S
C28   C5     1.48479       .     S
C5    C28    1.48479       .     S
H7    C6     0.95039       .     S
C6    H7     0.95039       .     S
C19   C6     1.43472       .     S
C6    C19    1.43472       .     S
C43   C6     1.35057       .     S
C6    C43    1.35057       .     S
H9    C8     0.95168       .     S
C8    H9     0.95168       .     S
C37   C8     1.34809       .     S
C8    C37    1.34809       .     S
C14   C10    1.42954       .     S
C10   C14    1.42954       .     S
C43   C10    1.43193       .     S
C10   C43    1.43193       .     S
C53   C10    1.41726       .     S
C10   C53    1.41726       .     S
H12   C11    0.95142       .     S
C11   H12    0.95142       .     S
C25   C11    1.39511       .     S
C11   C25    1.39511       .     S
C14   C13    1.44098       .     S
C13   C14    1.44098       .     S
C19   C13    1.43028       .     S
C13   C19    1.43028       .     S
C15   C14    1.42960       .     S
C14   C15    1.42960       .     S
C36   C15    1.41436       .     S
C15   C36    1.41436       .     S
C37   C15    1.43357       .     S
C15   C37    1.43357       .     S
H17   N16    0.86261       .     S
N16   H17    0.86261       .     S
H18   N16    0.86453       .     S
N16   H18    0.86453       .     S
C62   N16    1.40687       .     S
N16   C62    1.40687       .     S
C25   C19    1.40931       .     S
C19   C25    1.40931       .     S
H21   C20    0.94924       .     S
C20   H21    0.94924       .     S
C22   C20    1.40293       .     S
C20   C22    1.40293       .     S
C66   C20    1.37983       .     S
C20   C66    1.37983       .     S
C25   C22    1.49169       .     S
C22   C25    1.49169       .     S
C46   C22    1.39813       .     S
C22   C46    1.39813       .     S
H24   N23    0.86150       .     S
N23   H24    0.86150       .     S
C52   N23    1.40121       .     S
N23   C52    1.40121       .     S
H76   N23    0.94005       .     S
N23   H76    0.94005       .     S
H27   C26    0.95054       .     S
C26   H27    0.95054       .     S
C56   C26    1.38730       .     S
C26   C56    1.38730       .     S
C68   C26    1.40181       .     S
C26   C68    1.40181       .     S
C39   C28    1.40362       .     S
C28   C39    1.40362       .     S
C41   C28    1.39619       .     S
C28   C41    1.39619       .     S
H30   C29    0.95074       .     S
C29   H30    0.95074       .     S
C41   C29    1.38816       .     S
C29   C41    1.38816       .     S
C65   C29    1.39334       .     S
C29   C65    1.39334       .     S
H32   C31    0.94889       .     S
C31   H32    0.94889       .     S
C36   C31    1.39453       .     S
C31   C36    1.39453       .     S
C53   C31    1.39123       .     S
C31   C53    1.39123       .     S
H34   N33    0.86433       .     S
N33   H34    0.86433       .     S
C65   N33    1.40593       .     S
N33   C65    1.40593       .     S
H75   N33    0.91941       .     S
N33   H75    0.91941       .     S
C36   C35    1.48918       .     S
C35   C36    1.48918       .     S
C58   C35    1.39990       .     S
C35   C58    1.39990       .     S
C63   C35    1.40189       .     S
C35   C63    1.40189       .     S
H38   C37    0.95119       .     S
C37   H38    0.95119       .     S
H40   C39    0.94903       .     S
C39   H40    0.94903       .     S
C60   C39    1.38713       .     S
C39   C60    1.38713       .     S
H42   C41    0.95111       .     S
C41   H42    0.95111       .     S
H44   C43    0.95170       .     S
C43   H44    0.95170       .     S
C50   C45    1.39095       .     S
C45   C50    1.39095       .     S
C69   C45    1.39495       .     S
C45   C69    1.39495       .     S
N71   C45    1.41164   1_655     S
C45   N71    1.41164   1_455     S
H47   C46    0.95039       .     S
C46   H47    0.95039       .     S
C73   C46    1.39608       .     S
C46   C73    1.39608       .     S
H49   C48    0.95080       .     S
C48   H49    0.95080       .     S
C54   C48    1.38692       .     S
C48   C54    1.38692       .     S
C68   C48    1.39665       .     S
C48   C68    1.39665       .     S
H51   C50    0.95077       .     S
C50   H51    0.95077       .     S
C58   C50    1.38814       .     S
C50   C58    1.38814       .     S
C54   C52    1.39471       .     S
C52   C54    1.39471       .     S
C56   C52    1.39202       .     S
C52   C56    1.39202       .     S
C68   C53    1.48271       .     S
C53   C68    1.48271       .     S
H55   C54    0.95089       .     S
C54   H55    0.95089       .     S
H57   C56    0.95105       .     S
C56   H57    0.95105       .     S
H59   C58    0.94955       .     S
C58   H59    0.94955       .     S
H61   C60    0.95053       .     S
C60   H61    0.95053       .     S
C65   C60    1.39554       .     S
C60   C65    1.39554       .     S
C66   C62    1.39112       .     S
C62   C66    1.39112       .     S
C73   C62    1.40007       .     S
C62   C73    1.40007       .     S
H64   C63    0.94928       .     S
C63   H64    0.94928       .     S
C69   C63    1.39053       .     S
C63   C69    1.39053       .     S
H67   C66    0.95027       .     S
C66   H67    0.95027       .     S
H70   C69    0.94866       .     S
C69   H70    0.94866       .     S
H72   N71    0.85914       .     S
N71   H72    0.85914       .     S
H77   N71    0.93554       .     S
N71   H77    0.93554       .     S
H74   C73    0.95117       .     S
C73   H74    0.95117       .     S
H79   O78    0.84622       .     S
O78   H79    0.84622       .     S
H80   O78    1.00517       .     S
O78   H80    1.00517       .     S
