data_I
_chemical_name_common  '/data/user2/wty/HOF/MOFDiff/mofdiff/data/test/208'
_cell_length_a 25.11460
_cell_length_b  9.19570
_cell_length_c  9.41380
_cell_angle_alpha 90.00000
_cell_angle_beta  98.90200
_cell_angle_gamma 90.00000
_space_group_name_H-M_alt      'P 1'


loop_
_space_group_symop_operation_xyz
  'x, y, z' 

loop_
_atom_site_label
_atom_site_fract_x
_atom_site_fract_y
_atom_site_fract_z
_atom_site_type_symbol
N0     0.32868   0.4348   0.5413     N
H1     0.30275  0.42481  0.47074     H
C2     0.33914    0.565   0.5966     C
H3     0.31861  0.64414  0.55894     H
C4     0.38028   0.5847   0.7098     C
H5     0.38721  0.67702  0.74868     H
C6     0.41161   0.4671   0.7664     C
C7      0.4568   0.4839   0.8863     C
C8     0.48097    0.619   0.9189     C
H9     0.46829  0.70006  0.86489     H
C10    0.52344   0.6342   0.0301     C
H11    0.53906   0.7252  0.04934     H
C12     0.3985   0.3315   0.7039     C
H13    0.41796  0.24952  0.73872     H
C14    0.35679   0.3187   0.5907     C
H15    0.34837  0.22829  0.54898     H
P16    0.21729  0.54184  0.28282     P
O17    0.17571    0.575    0.386     O
H18     0.1836  0.52829  0.46051     H
O19    0.24669   0.4028  0.32847     O
O20    0.26118   0.6625   0.3105     O
H21    0.25136    0.734  0.26124     H
O22    0.18641   0.5484  0.13422     O
O23     0.0742   0.5271   0.1054     O
H24    0.08125  0.43704  0.11795     H
H25    0.04306  0.54486  0.12571     H
loop_
_geom_bond_atom_site_label_1
_geom_bond_atom_site_label_2
_geom_bond_distance
_geom_bond_site_symmetry_2
_ccdc_geom_bond_type
H1    O19    1.79815       .     S
O19   H1     1.79815       .     S
N0    H1     0.86015       .     S
H1    N0     0.86015       .     S
N0    C2     1.31574       .     S
C2    N0     1.31574       .     S
N0    C14    1.32396       .     S
C14   N0     1.32396       .     S
C2    H3     0.92983       .     S
H3    C2     0.92983       .     S
C2    C4     1.37666       .     S
C4    C2     1.37666       .     S
C4    H5     0.93019       .     S
H5    C4     0.93019       .     S
C4    C6     1.39382       .     S
C6    C4     1.39382       .     S
C6    C7     1.47969       .     S
C7    C6     1.47969       .     S
C6    C12    1.39624       .     S
C12   C6     1.39624       .     S
C7    C8     1.39585       .     S
C8    C7     1.39585       .     S
C8    H9     0.93029       .     S
H9    C8     0.93029       .     S
C8    C10    1.38111   1_556     S
C10   C8     1.38111   1_554     S
C10   H11    0.93003       .     S
H11   C10    0.93003       .     S
C12   H13    0.93007       .     S
H13   C12    0.93007       .     S
C12   C14    1.37887       .     S
C14   C12    1.37887       .     S
C14   H15    0.92976       .     S
H15   C14    0.92976       .     S
P16   O17    1.56232       .     S
O17   P16    1.56232       .     S
P16   O19    1.50546       .     S
O19   P16    1.50546       .     S
P16   O20    1.55728       .     S
O20   P16    1.55728       .     S
P16   O22    1.49206       .     S
O22   P16    1.49206       .     S
O17   H18    0.82021       .     S
H18   O17    0.82021       .     S
O20   H21    0.82022       .     S
H21   O20    0.82022       .     S
O23   H24    0.85129       .     S
H24   O23    0.85129       .     S
O23   H25    0.84920       .     S
H25   O23    0.84920       .     S
O19   H1     1.79815       .     S
H1    O19    1.79815       .     S
H1    N0     0.86015       .     S
N0    H1     0.86015       .     S
C2    N0     1.31574       .     S
N0    C2     1.31574       .     S
C14   N0     1.32396       .     S
N0    C14    1.32396       .     S
H3    C2     0.92983       .     S
C2    H3     0.92983       .     S
C4    C2     1.37666       .     S
C2    C4     1.37666       .     S
H5    C4     0.93019       .     S
C4    H5     0.93019       .     S
C6    C4     1.39382       .     S
C4    C6     1.39382       .     S
C7    C6     1.47969       .     S
C6    C7     1.47969       .     S
C12   C6     1.39624       .     S
C6    C12    1.39624       .     S
C8    C7     1.39585       .     S
C7    C8     1.39585       .     S
H9    C8     0.93029       .     S
C8    H9     0.93029       .     S
C10   C8     1.38111   1_554     S
C8    C10    1.38111   1_556     S
H11   C10    0.93003       .     S
C10   H11    0.93003       .     S
H13   C12    0.93007       .     S
C12   H13    0.93007       .     S
C14   C12    1.37887       .     S
C12   C14    1.37887       .     S
H15   C14    0.92976       .     S
C14   H15    0.92976       .     S
O17   P16    1.56232       .     S
P16   O17    1.56232       .     S
O19   P16    1.50546       .     S
P16   O19    1.50546       .     S
O20   P16    1.55728       .     S
P16   O20    1.55728       .     S
O22   P16    1.49206       .     S
P16   O22    1.49206       .     S
H18   O17    0.82021       .     S
O17   H18    0.82021       .     S
H21   O20    0.82022       .     S
O20   H21    0.82022       .     S
H24   O23    0.85129       .     S
O23   H24    0.85129       .     S
H25   O23    0.84920       .     S
O23   H25    0.84920       .     S
