data_I
_chemical_name_common  '/data/user2/wty/HOF/MOFDiff/mofdiff/data/test/209-zioc2-1dot5h2o-rt'
_cell_length_a  9.37740
_cell_length_b 11.01700
_cell_length_c  6.89550
_cell_angle_alpha 94.03400
_cell_angle_beta  107.45900
_cell_angle_gamma 67.43600
_space_group_name_H-M_alt      'P 1'


loop_
_space_group_symop_operation_xyz
  'x, y, z' 

loop_
_atom_site_label
_atom_site_fract_x
_atom_site_fract_y
_atom_site_fract_z
_atom_site_type_symbol
O0       0.069   0.5507    0.373     O
H1      0.0294   0.5227   0.4498     H
H2      0.0916   0.6151   0.4279     H
O3      0.8798   0.1692   0.5643     O
C4      0.7543   0.1673   0.4319     C
O5      0.6671   0.1112   0.4543     O
C6      0.7039   0.2453    0.234     C
C7      0.7628    0.339    0.214     C
H8      0.8359   0.3572   0.3246     H
C9      0.7117   0.4078    0.023     C
H10     0.7493   0.4725   0.0088     H
C11     0.6042   0.3772    0.857     C
C12     0.5512   0.4386     0.66     C
C13        0.5      0.5      0.5     C
C14     0.4408   0.5702     0.31     C
C15     0.3306   0.5397    0.144     C
H16     0.2952   0.4739   0.1599     H
C17     0.2745   0.6086    0.956     C
H18     0.2005   0.5897   0.8467     H
C19     0.3301   0.7054    0.933     C
C20     0.2709    0.782    0.733     C
O21     0.1564   0.7674   0.5957     O
O22     0.3349   0.8617   0.7192     O
C23     0.4357   0.7404    0.096     C
H24      0.465   0.8099   0.0808     H
C25     0.4964   0.6698    0.283     C
N26     0.6059   0.6942   0.4555     N
H27     0.6968   0.6211    0.478     H
C28     0.6581    0.797    0.488     C
O29     0.5996   0.8957   0.3732     O
C30     0.7979   0.7767    0.684     C
H31       0.88    0.688   0.6893     H
C32     0.7409   0.7918    0.876     C
H33     0.6249   0.8395   0.8429     H
H34     0.7691   0.7066   0.9395     H
C35     0.8317   0.8697    0.015     C
H36      0.772   0.9212   0.1056     H
H37     0.9381   0.8117   0.0957     H
C38     0.8436   0.9582    0.866     C
H39     0.7441   0.0351   0.8214     H
H40     0.9325   0.9866   0.9266     H
N41     0.8725   0.8727   0.6935     N
H42      0.829   0.9219    0.576     H
H43     0.9794   0.8308   0.7124     H
C44     0.5438   0.2783    0.881     C
N45     0.4432   0.2526   0.7033     N
H46     0.5119   0.1907   0.6465     H
C47     0.3138   0.2155    0.665     C
O48     0.2213   0.2419   0.7686     O
C49     0.2935   0.1379    0.471     C
H50     0.4003   0.0814   0.4594     H
C51     0.1959   0.2323    0.276     C
H52     0.1114   0.3102   0.3026     H
H53     0.2662   0.2586   0.2253     H
C54     0.1252   0.1463    0.128     C
H55     0.0217   0.1998    0.035     H
H56     0.1977   0.0983   0.0494     H
C57      0.105   0.0534    0.255     C
H58     0.9918   0.0795   0.2457     H
H59     0.1433   0.9649   0.2081     H
N60     0.1997   0.0573   0.4668     N
H61      0.133   0.0919   0.5442     H
H62     0.2666   0.9752    0.517     H
C63     0.5964   0.2122    0.068     C
H64     0.5612   0.1463   0.0839     H
O65     0.9233   0.4396   0.6779     O
H66     0.9132   0.3674   0.6435     H
H67     0.0162   0.4257   0.7612     H
loop_
_geom_bond_atom_site_label_1
_geom_bond_atom_site_label_2
_geom_bond_distance
_geom_bond_site_symmetry_2
_ccdc_geom_bond_type
H1    O65    2.47843   1_455     S
O65   H1     2.47843   1_655     S
H2    O21    2.14727       .     S
O21   H2     2.14727       .     S
H27   O65    2.40444       .     S
O65   H27    2.40444       .     S
H42   O5     2.10010   1_565     S
O5    H42    2.10010   1_545     S
H42   O29    2.29806       .     S
O29   H42    2.29806       .     S
H43   O21    1.92951   1_655     S
O21   H43    1.92951   1_455     S
H46   O5     2.15813       .     S
O5    H46    2.15813       .     S
H61   O3     2.23855   1_455     S
O3    H61    2.23855   1_655     S
H61   O48    2.39424       .     S
O48   H61    2.39424       .     S
H62   O22    1.73569       .     S
O22   H62    1.73569       .     S
H66   O3     2.32782       .     S
O3    H66    2.32782       .     S
H67   O48    2.18378       .     S
O48   H67    2.18378       .     S
O0    H1     0.86163       .     S
H1    O0     0.86163       .     S
O0    H2     0.84916       .     S
H2    O0     0.84916       .     S
O3    C4     1.26113       .     S
C4    O3     1.26113       .     S
C4    O5     1.24562       .     S
O5    C4     1.24562       .     S
C4    C6     1.51338       .     S
C6    C4     1.51338       .     S
C6    C7     1.37587       .     S
C7    C6     1.37587       .     S
C6    C63    1.41082       .     S
C63   C6     1.41082       .     S
C7    H8     0.92844       .     S
H8    C7     0.92844       .     S
C7    C9     1.42188       .     S
C9    C7     1.42188       .     S
C9    H10    0.93027       .     S
H10   C9     0.93027       .     S
C9    C11    1.39793   1_554     S
C11   C9     1.39793   1_556     S
C11   C12    1.41987       .     S
C12   C11    1.41987       .     S
C11   C44    1.44589       .     S
C44   C11    1.44589       .     S
C12   C13    1.20135       .     S
C13   C12    1.20135       .     S
C13   C14    1.41402       .     S
C14   C13    1.41402       .     S
C14   C15    1.41196       .     S
C15   C14    1.41196       .     S
C14   C25    1.42709       .     S
C25   C14    1.42709       .     S
C15   H16    0.93028       .     S
H16   C15    0.93028       .     S
C15   C17    1.39866   1_554     S
C17   C15    1.39866   1_556     S
C17   H18    0.93161       .     S
H18   C17    0.93161       .     S
C17   C19    1.39084       .     S
C19   C17    1.39084       .     S
C19   C20    1.50569       .     S
C20   C19    1.50569       .     S
C19   C23    1.39885   1_556     S
C23   C19    1.39885   1_554     S
C20   O21    1.25547       .     S
O21   C20    1.25547       .     S
C20   O22    1.26121       .     S
O22   C20    1.26121       .     S
C23   H24    0.92885       .     S
H24   C23    0.92885       .     S
C23   C25    1.39736       .     S
C25   C23    1.39736       .     S
C25   N26    1.40550       .     S
N26   C25    1.40550       .     S
N26   H27    0.90036       .     S
H27   N26    0.90036       .     S
N26   C28    1.37710       .     S
C28   N26    1.37710       .     S
C28   O29    1.22993       .     S
O29   C28    1.22993       .     S
C28   C30    1.53284       .     S
C30   C28    1.53284       .     S
C30   H31    0.97968       .     S
H31   C30    0.97968       .     S
C30   C32    1.54648       .     S
C32   C30    1.54648       .     S
C30   N41    1.46383       .     S
N41   C30    1.46383       .     S
C32   H33    0.96991       .     S
H33   C32    0.96991       .     S
C32   H34    0.96983       .     S
H34   C32    0.96983       .     S
C32   C35    1.52826   1_556     S
C35   C32    1.52826   1_554     S
C35   H36    0.97049       .     S
H36   C35    0.97049       .     S
C35   H37    0.97009       .     S
H37   C35    0.97009       .     S
C35   C38    1.52050   1_554     S
C38   C35    1.52050   1_556     S
C38   H39    0.96993   1_565     S
H39   C38    0.96993   1_545     S
C38   H40    0.96966       .     S
H40   C38    0.96966       .     S
C38   N41    1.48844       .     S
N41   C38    1.48844       .     S
N41   H42    0.90025       .     S
H42   N41    0.90025       .     S
N41   H43    0.89995       .     S
H43   N41    0.89995       .     S
C44   N45    1.39072       .     S
N45   C44    1.39072       .     S
C44   C63    1.38243   1_556     S
C63   C44    1.38243   1_554     S
N45   H46    0.90009       .     S
H46   N45    0.90009       .     S
N45   C47    1.37200       .     S
C47   N45    1.37200       .     S
C47   O48    1.22323       .     S
O48   C47    1.22323       .     S
C47   C49    1.53877       .     S
C49   C47    1.53877       .     S
C49   H50    0.97955       .     S
H50   C49    0.97955       .     S
C49   C51    1.56688       .     S
C51   C49    1.56688       .     S
C49   N60    1.46408       .     S
N60   C49    1.46408       .     S
C51   H52    0.97018       .     S
H52   C51    0.97018       .     S
C51   H53    0.96948       .     S
H53   C51    0.96948       .     S
C51   C54    1.52274       .     S
C54   C51    1.52274       .     S
C54   H55    0.97022       .     S
H55   C54    0.97022       .     S
C54   H56    0.96978       .     S
H56   C54    0.96978       .     S
C54   C57    1.49155       .     S
C57   C54    1.49155       .     S
C57   H58    0.97012   1_455     S
H58   C57    0.97012   1_655     S
C57   H59    0.96995   1_545     S
H59   C57    0.96995   1_565     S
C57   N60    1.47161       .     S
N60   C57    1.47161       .     S
N60   H61    0.90004       .     S
H61   N60    0.90004       .     S
N60   H62    0.89988   1_545     S
H62   N60    0.89988   1_565     S
C63   H64    0.93001       .     S
H64   C63    0.93001       .     S
O65   H66    0.84601       .     S
H66   O65    0.84601       .     S
O65   H67    0.84973   1_655     S
H67   O65    0.84973   1_455     S
O65   H1     2.47843   1_655     S
H1    O65    2.47843   1_455     S
O21   H2     2.14727       .     S
H2    O21    2.14727       .     S
O65   H27    2.40444       .     S
H27   O65    2.40444       .     S
O5    H42    2.10010   1_545     S
H42   O5     2.10010   1_565     S
O29   H42    2.29806       .     S
H42   O29    2.29806       .     S
O21   H43    1.92951   1_455     S
H43   O21    1.92951   1_655     S
O5    H46    2.15813       .     S
H46   O5     2.15813       .     S
O3    H61    2.23855   1_655     S
H61   O3     2.23855   1_455     S
O48   H61    2.39424       .     S
H61   O48    2.39424       .     S
O22   H62    1.73569       .     S
H62   O22    1.73569       .     S
O3    H66    2.32782       .     S
H66   O3     2.32782       .     S
O48   H67    2.18378       .     S
H67   O48    2.18378       .     S
H1    O0     0.86163       .     S
O0    H1     0.86163       .     S
H2    O0     0.84916       .     S
O0    H2     0.84916       .     S
C4    O3     1.26113       .     S
O3    C4     1.26113       .     S
O5    C4     1.24562       .     S
C4    O5     1.24562       .     S
C6    C4     1.51338       .     S
C4    C6     1.51338       .     S
C7    C6     1.37587       .     S
C6    C7     1.37587       .     S
C63   C6     1.41082       .     S
C6    C63    1.41082       .     S
H8    C7     0.92844       .     S
C7    H8     0.92844       .     S
C9    C7     1.42188       .     S
C7    C9     1.42188       .     S
H10   C9     0.93027       .     S
C9    H10    0.93027       .     S
C11   C9     1.39793   1_556     S
C9    C11    1.39793   1_554     S
C12   C11    1.41987       .     S
C11   C12    1.41987       .     S
C44   C11    1.44589       .     S
C11   C44    1.44589       .     S
C13   C12    1.20135       .     S
C12   C13    1.20135       .     S
C14   C13    1.41402       .     S
C13   C14    1.41402       .     S
C15   C14    1.41196       .     S
C14   C15    1.41196       .     S
C25   C14    1.42709       .     S
C14   C25    1.42709       .     S
H16   C15    0.93028       .     S
C15   H16    0.93028       .     S
C17   C15    1.39866   1_556     S
C15   C17    1.39866   1_554     S
H18   C17    0.93161       .     S
C17   H18    0.93161       .     S
C19   C17    1.39084       .     S
C17   C19    1.39084       .     S
C20   C19    1.50569       .     S
C19   C20    1.50569       .     S
C23   C19    1.39885   1_554     S
C19   C23    1.39885   1_556     S
O21   C20    1.25547       .     S
C20   O21    1.25547       .     S
O22   C20    1.26121       .     S
C20   O22    1.26121       .     S
H24   C23    0.92885       .     S
C23   H24    0.92885       .     S
C25   C23    1.39736       .     S
C23   C25    1.39736       .     S
N26   C25    1.40550       .     S
C25   N26    1.40550       .     S
H27   N26    0.90036       .     S
N26   H27    0.90036       .     S
C28   N26    1.37710       .     S
N26   C28    1.37710       .     S
O29   C28    1.22993       .     S
C28   O29    1.22993       .     S
C30   C28    1.53284       .     S
C28   C30    1.53284       .     S
H31   C30    0.97968       .     S
C30   H31    0.97968       .     S
C32   C30    1.54648       .     S
C30   C32    1.54648       .     S
N41   C30    1.46383       .     S
C30   N41    1.46383       .     S
H33   C32    0.96991       .     S
C32   H33    0.96991       .     S
H34   C32    0.96983       .     S
C32   H34    0.96983       .     S
C35   C32    1.52826   1_554     S
C32   C35    1.52826   1_556     S
H36   C35    0.97049       .     S
C35   H36    0.97049       .     S
H37   C35    0.97009       .     S
C35   H37    0.97009       .     S
C38   C35    1.52050   1_556     S
C35   C38    1.52050   1_554     S
H39   C38    0.96993   1_545     S
C38   H39    0.96993   1_565     S
H40   C38    0.96966       .     S
C38   H40    0.96966       .     S
N41   C38    1.48844       .     S
C38   N41    1.48844       .     S
H42   N41    0.90025       .     S
N41   H42    0.90025       .     S
H43   N41    0.89995       .     S
N41   H43    0.89995       .     S
N45   C44    1.39072       .     S
C44   N45    1.39072       .     S
C63   C44    1.38243   1_554     S
C44   C63    1.38243   1_556     S
H46   N45    0.90009       .     S
N45   H46    0.90009       .     S
C47   N45    1.37200       .     S
N45   C47    1.37200       .     S
O48   C47    1.22323       .     S
C47   O48    1.22323       .     S
C49   C47    1.53877       .     S
C47   C49    1.53877       .     S
H50   C49    0.97955       .     S
C49   H50    0.97955       .     S
C51   C49    1.56688       .     S
C49   C51    1.56688       .     S
N60   C49    1.46408       .     S
C49   N60    1.46408       .     S
H52   C51    0.97018       .     S
C51   H52    0.97018       .     S
H53   C51    0.96948       .     S
C51   H53    0.96948       .     S
C54   C51    1.52274       .     S
C51   C54    1.52274       .     S
H55   C54    0.97022       .     S
C54   H55    0.97022       .     S
H56   C54    0.96978       .     S
C54   H56    0.96978       .     S
C57   C54    1.49155       .     S
C54   C57    1.49155       .     S
H58   C57    0.97012   1_655     S
C57   H58    0.97012   1_455     S
H59   C57    0.96995   1_565     S
C57   H59    0.96995   1_545     S
N60   C57    1.47161       .     S
C57   N60    1.47161       .     S
H61   N60    0.90004       .     S
N60   H61    0.90004       .     S
H62   N60    0.89988   1_565     S
N60   H62    0.89988   1_545     S
H64   C63    0.93001       .     S
C63   H64    0.93001       .     S
H66   O65    0.84601       .     S
O65   H66    0.84601       .     S
H67   O65    0.84973   1_455     S
O65   H67    0.84973   1_655     S
