data_I
_chemical_name_common  '/data/user2/wty/HOF/MOFDiff/mofdiff/data/test/209-zioc2-4h2o-rt'
_cell_length_a  9.68990
_cell_length_b 10.96010
_cell_length_c  6.89480
_cell_angle_alpha 100.94300
_cell_angle_beta  98.18200
_cell_angle_gamma 71.54700
_space_group_name_H-M_alt      'P 1'


loop_
_space_group_symop_operation_xyz
  'x, y, z' 

loop_
_atom_site_label
_atom_site_fract_x
_atom_site_fract_y
_atom_site_fract_z
_atom_site_type_symbol
O0      0.2362   0.9601   0.7255     O
H1      0.2221   0.8858   0.6916     H
H2      0.3141    0.953   0.8031     H
O3      0.4442   0.0329   0.9325     O
H4      0.3862   0.1116   0.9461     H
H5       0.496   0.0242   0.8382     H
O6      0.6044   0.0649   0.6832     O
H7      0.5727   0.0433   0.5648     H
H8      0.6604   0.1119   0.6868     H
O9      0.8073   0.2337   0.6963     O
O10     0.8875   0.4073   0.7806     O
O11     0.7224   0.7588   0.3815     O
N12     0.7518   0.5684   0.5005     N
H13     0.7646    0.539    0.611     H
N14     0.9226   0.8358   0.6704     N
H15     0.8559   0.8886   0.5943     H
H16     0.0077   0.8072   0.6142     H
C17     0.7095   0.4886    0.332     C
C18     0.7866   0.4485   0.1607     C
H19     0.8715   0.4704   0.1585     H
C20      0.734   0.3755   0.9941     C
C21     0.6118   0.3351   0.9986     C
H22     0.5813   0.2827   0.8893     H
C23     0.5349   0.3741   0.1695     C
H24     0.4525   0.3486   0.1726     H
C25     0.5826   0.4513   0.3347     C
C26     0.8173   0.3347   0.8128     C
C27     0.7754   0.6882   0.5116     C
C28     0.8728   0.7248    0.691     C
H29     0.9596   0.6496   0.7024     H
C30     0.8038   0.7615   0.8886     C
H31     0.7018   0.7642   0.8673     H
H32     0.8545   0.6988   0.9764     H
C33     0.8184   0.8953   0.9766     C
H34     0.7285   0.9629   0.9494     H
H35     0.8422   0.9019    0.119     H
C36     0.9415   0.9068   0.8754     C
H37     0.9325   0.9972    0.873     H
H38     0.0358   0.8664   0.9415     H
C39        0.5      0.5      0.5     C
O40     0.1232   0.8239   0.4366     O
O41     0.0821   0.6302   0.3866     O
O42      0.279   0.2605   0.8382     O
N43     0.2103   0.4372   0.6795     N
H44     0.1713   0.4649   0.5699     H
N45     0.1097   0.1402   0.5237     N
H46      0.054   0.1797   0.6249     H
H47     0.1645   0.0609   0.5498     H
C48     0.2455   0.5313    0.837     C
C49      0.175   0.5728   0.0125     C
H50     0.1043   0.5374   0.0346     H
C51     0.2153    0.672   0.1577     C
C52     0.3201   0.7234   0.1319     C
H53      0.346   0.7845   0.2312     H
C54      0.389   0.6849   0.9572     C
H55      0.459   0.7219   0.9372     H
C56      0.351   0.5877   0.8085     C
C57     0.1315   0.7113   0.3385     C
C58     0.2321   0.3074   0.6842     C
C59     0.2046   0.2177   0.5031     C
H60     0.2997   0.1555   0.4728     H
C61     0.1395   0.2802   0.3142     C
H62     0.2137   0.2971   0.2515     H
H63     0.0614   0.3604   0.3429     H
C64     0.0812   0.1717    0.185     C
H65     0.0077   0.2058   0.0818     H
H66     0.1596   0.1013   0.1248     H
C67     0.0158   0.1273   0.3368     C
H68     0.9161   0.1815   0.3535     H
H69     0.0158   0.0376   0.2954     H
C70     0.4333   0.5394   0.6417     C
O71     0.5015   0.9949   0.2996     O
H72      0.514    0.914   0.3034     H
H73     0.4831   0.0072     0.18     H
loop_
_geom_bond_atom_site_label_1
_geom_bond_atom_site_label_2
_geom_bond_distance
_geom_bond_site_symmetry_2
_ccdc_geom_bond_type
H1    O40    1.98720       .     S
O40   H1     1.98720       .     S
H2    O3     1.79840   1_565     S
O3    H2     1.79839   1_545     S
H4    O42    1.86107       .     S
O42   H4     1.86107       .     S
H5    O6     1.80042       .     S
O6    H5     1.80042       .     S
H7    O71    1.89872   1_545     S
O71   H7     1.89872   1_565     S
H8    O9     2.22615       .     S
O9    H8     2.22615       .     S
H13   O10    2.00634       .     S
O10   H13    2.00634       .     S
H15   O11    2.38375       .     S
O11   H15    2.38375       .     S
H16   O40    1.84130       .     S
O40   H16    1.84130       .     S
H16   O41    2.24199       .     S
O41   H16    2.24199       .     S
H44   O41    2.27896       .     S
O41   H44    2.27896       .     S
H46   O9     2.37399   1_455     S
O9    H46    2.37399   1_655     S
H47   O0     1.71855   1_545     S
O0    H47    1.71855   1_565     S
H72   O11    2.26384       .     S
O11   H72    2.26384       .     S
H73   O3     1.75089   1_554     S
O3    H73    1.75089   1_556     S
O0    H1     0.85178       .     S
H1    O0     0.85178       .     S
O0    H2     0.85192       .     S
H2    O0     0.85192       .     S
O3    H4     0.86375       .     S
H4    O3     0.86375       .     S
O3    H5     0.85019       .     S
H5    O3     0.85019       .     S
O6    H7     0.84741       .     S
H7    O6     0.84741       .     S
O6    H8     0.85363       .     S
H8    O6     0.85363       .     S
O9    C26    1.26021       .     S
C26   O9     1.26021       .     S
O10   C26    1.26406       .     S
C26   O10    1.26406       .     S
O11   C27    1.24417       .     S
C27   O11    1.24417       .     S
N12   H13    0.86063       .     S
H13   N12    0.86063       .     S
N12   C17    1.41007       .     S
C17   N12    1.41007       .     S
N12   C27    1.38893       .     S
C27   N12    1.38893       .     S
N14   H15    0.89994       .     S
H15   N14    0.89994       .     S
N14   H16    0.89977   1_655     S
H16   N14    0.89977   1_455     S
N14   C28    1.47981       .     S
C28   N14    1.47981       .     S
N14   C36    1.49527       .     S
C36   N14    1.49527       .     S
C17   C18    1.41155       .     S
C18   C17    1.41155       .     S
C17   C25    1.41674       .     S
C25   C17    1.41674       .     S
C18   H19    0.92982       .     S
H19   C18    0.92982       .     S
C18   C20    1.40070   1_554     S
C20   C18    1.40070   1_556     S
C20   C21    1.39525       .     S
C21   C20    1.39525       .     S
C20   C26    1.50350       .     S
C26   C20    1.50350       .     S
C21   H22    0.92996       .     S
H22   C21    0.92996       .     S
C21   C23    1.40835   1_556     S
C23   C21    1.40835   1_554     S
C23   H24    0.92977       .     S
H24   C23    0.92977       .     S
C23   C25    1.39955       .     S
C25   C23    1.39955       .     S
C25   C39    1.40808       .     S
C39   C25    1.40808       .     S
C27   C28    1.51679       .     S
C28   C27    1.51679       .     S
C28   H29    0.97971       .     S
H29   C28    0.97971       .     S
C28   C30    1.53165       .     S
C30   C28    1.53165       .     S
C30   H31    0.97012       .     S
H31   C30    0.97012       .     S
C30   H32    0.96934       .     S
H32   C30    0.96934       .     S
C30   C33    1.51913       .     S
C33   C30    1.51913       .     S
C33   H34    0.96986       .     S
H34   C33    0.96986       .     S
C33   H35    0.97033   1_556     S
H35   C33    0.97033   1_554     S
C33   C36    1.51362       .     S
C36   C33    1.51362       .     S
C36   H37    0.96988       .     S
H37   C36    0.96988       .     S
C36   H38    0.96988   1_655     S
H38   C36    0.96988   1_455     S
C39   C70    1.18389       .     S
C70   C39    1.18389       .     S
O40   C57    1.27386       .     S
C57   O40    1.27386       .     S
O41   C57    1.24726       .     S
C57   O41    1.24726       .     S
O42   C58    1.23295       .     S
C58   O42    1.23295       .     S
N43   H44    0.85977       .     S
H44   N43    0.85977       .     S
N43   C48    1.43224       .     S
C48   N43    1.43224       .     S
N43   C58    1.37653       .     S
C58   N43    1.37653       .     S
N45   H46    0.90010       .     S
H46   N45    0.90010       .     S
N45   H47    0.89987       .     S
H47   N45    0.89987       .     S
N45   C59    1.47130       .     S
C59   N45    1.47130       .     S
N45   C67    1.47885       .     S
C67   N45    1.47885       .     S
C48   C49    1.40263   1_556     S
C49   C48    1.40263   1_554     S
C48   C56    1.40326       .     S
C56   C48    1.40326       .     S
C49   H50    0.92925       .     S
H50   C49    0.92925       .     S
C49   C51    1.44260       .     S
C51   C49    1.44260       .     S
C51   C52    1.35347       .     S
C52   C51    1.35347       .     S
C51   C57    1.50390       .     S
C57   C51    1.50390       .     S
C52   H53    0.92930       .     S
H53   C52    0.92930       .     S
C52   C54    1.39005   1_554     S
C54   C52    1.39005   1_556     S
C54   H55    0.93034       .     S
H55   C54    0.93034       .     S
C54   C56    1.43103       .     S
C56   C54    1.43103       .     S
C56   C70    1.41474       .     S
C70   C56    1.41474       .     S
C58   C59    1.48382       .     S
C59   C58    1.48382       .     S
C59   H60    0.98010       .     S
H60   C59    0.98010       .     S
C59   C61    1.54751       .     S
C61   C59    1.54751       .     S
C61   H62    0.97022       .     S
H62   C61    0.97022       .     S
C61   H63    0.96953       .     S
H63   C61    0.96953       .     S
C61   C64    1.55134       .     S
C64   C61    1.55134       .     S
C64   H65    0.97027       .     S
H65   C64    0.97027       .     S
C64   H66    0.97049       .     S
H66   C64    0.97049       .     S
C64   C67    1.52027       .     S
C67   C64    1.52027       .     S
C67   H68    0.97049   1_455     S
H68   C67    0.97049   1_655     S
C67   H69    0.97029       .     S
H69   C67    0.97029       .     S
O71   H72    0.86109       .     S
H72   O71    0.86109       .     S
O71   H73    0.84564   1_565     S
H73   O71    0.84564   1_545     S
O40   H1     1.98720       .     S
H1    O40    1.98720       .     S
O3    H2     1.79839   1_545     S
H2    O3     1.79840   1_565     S
O42   H4     1.86107       .     S
H4    O42    1.86107       .     S
O6    H5     1.80042       .     S
H5    O6     1.80042       .     S
O71   H7     1.89872   1_565     S
H7    O71    1.89872   1_545     S
O9    H8     2.22615       .     S
H8    O9     2.22615       .     S
O10   H13    2.00634       .     S
H13   O10    2.00634       .     S
O11   H15    2.38375       .     S
H15   O11    2.38375       .     S
O40   H16    1.84130       .     S
H16   O40    1.84130       .     S
O41   H16    2.24199       .     S
H16   O41    2.24199       .     S
O41   H44    2.27896       .     S
H44   O41    2.27896       .     S
O9    H46    2.37399   1_655     S
H46   O9     2.37399   1_455     S
O0    H47    1.71855   1_565     S
H47   O0     1.71855   1_545     S
O11   H72    2.26384       .     S
H72   O11    2.26384       .     S
O3    H73    1.75089   1_556     S
H73   O3     1.75089   1_554     S
H1    O0     0.85178       .     S
O0    H1     0.85178       .     S
H2    O0     0.85192       .     S
O0    H2     0.85192       .     S
H4    O3     0.86375       .     S
O3    H4     0.86375       .     S
H5    O3     0.85019       .     S
O3    H5     0.85019       .     S
H7    O6     0.84741       .     S
O6    H7     0.84741       .     S
H8    O6     0.85363       .     S
O6    H8     0.85363       .     S
C26   O9     1.26021       .     S
O9    C26    1.26021       .     S
C26   O10    1.26406       .     S
O10   C26    1.26406       .     S
C27   O11    1.24417       .     S
O11   C27    1.24417       .     S
H13   N12    0.86063       .     S
N12   H13    0.86063       .     S
C17   N12    1.41007       .     S
N12   C17    1.41007       .     S
C27   N12    1.38893       .     S
N12   C27    1.38893       .     S
H15   N14    0.89994       .     S
N14   H15    0.89994       .     S
H16   N14    0.89977   1_455     S
N14   H16    0.89977   1_655     S
C28   N14    1.47981       .     S
N14   C28    1.47981       .     S
C36   N14    1.49527       .     S
N14   C36    1.49527       .     S
C18   C17    1.41155       .     S
C17   C18    1.41155       .     S
C25   C17    1.41674       .     S
C17   C25    1.41674       .     S
H19   C18    0.92982       .     S
C18   H19    0.92982       .     S
C20   C18    1.40070   1_556     S
C18   C20    1.40070   1_554     S
C21   C20    1.39525       .     S
C20   C21    1.39525       .     S
C26   C20    1.50350       .     S
C20   C26    1.50350       .     S
H22   C21    0.92996       .     S
C21   H22    0.92996       .     S
C23   C21    1.40835   1_554     S
C21   C23    1.40835   1_556     S
H24   C23    0.92977       .     S
C23   H24    0.92977       .     S
C25   C23    1.39955       .     S
C23   C25    1.39955       .     S
C39   C25    1.40808       .     S
C25   C39    1.40808       .     S
C28   C27    1.51679       .     S
C27   C28    1.51679       .     S
H29   C28    0.97971       .     S
C28   H29    0.97971       .     S
C30   C28    1.53165       .     S
C28   C30    1.53165       .     S
H31   C30    0.97012       .     S
C30   H31    0.97012       .     S
H32   C30    0.96934       .     S
C30   H32    0.96934       .     S
C33   C30    1.51913       .     S
C30   C33    1.51913       .     S
H34   C33    0.96986       .     S
C33   H34    0.96986       .     S
H35   C33    0.97033   1_554     S
C33   H35    0.97033   1_556     S
C36   C33    1.51362       .     S
C33   C36    1.51362       .     S
H37   C36    0.96988       .     S
C36   H37    0.96988       .     S
H38   C36    0.96988   1_455     S
C36   H38    0.96988   1_655     S
C70   C39    1.18389       .     S
C39   C70    1.18389       .     S
C57   O40    1.27386       .     S
O40   C57    1.27386       .     S
C57   O41    1.24726       .     S
O41   C57    1.24726       .     S
C58   O42    1.23295       .     S
O42   C58    1.23295       .     S
H44   N43    0.85977       .     S
N43   H44    0.85977       .     S
C48   N43    1.43224       .     S
N43   C48    1.43224       .     S
C58   N43    1.37653       .     S
N43   C58    1.37653       .     S
H46   N45    0.90010       .     S
N45   H46    0.90010       .     S
H47   N45    0.89987       .     S
N45   H47    0.89987       .     S
C59   N45    1.47130       .     S
N45   C59    1.47130       .     S
C67   N45    1.47885       .     S
N45   C67    1.47885       .     S
C49   C48    1.40263   1_554     S
C48   C49    1.40263   1_556     S
C56   C48    1.40326       .     S
C48   C56    1.40326       .     S
H50   C49    0.92925       .     S
C49   H50    0.92925       .     S
C51   C49    1.44260       .     S
C49   C51    1.44260       .     S
C52   C51    1.35347       .     S
C51   C52    1.35347       .     S
C57   C51    1.50390       .     S
C51   C57    1.50390       .     S
H53   C52    0.92930       .     S
C52   H53    0.92930       .     S
C54   C52    1.39005   1_556     S
C52   C54    1.39005   1_554     S
H55   C54    0.93034       .     S
C54   H55    0.93034       .     S
C56   C54    1.43103       .     S
C54   C56    1.43103       .     S
C70   C56    1.41474       .     S
C56   C70    1.41474       .     S
C59   C58    1.48382       .     S
C58   C59    1.48382       .     S
H60   C59    0.98010       .     S
C59   H60    0.98010       .     S
C61   C59    1.54751       .     S
C59   C61    1.54751       .     S
H62   C61    0.97022       .     S
C61   H62    0.97022       .     S
H63   C61    0.96953       .     S
C61   H63    0.96953       .     S
C64   C61    1.55134       .     S
C61   C64    1.55134       .     S
H65   C64    0.97027       .     S
C64   H65    0.97027       .     S
H66   C64    0.97049       .     S
C64   H66    0.97049       .     S
C67   C64    1.52027       .     S
C64   C67    1.52027       .     S
H68   C67    0.97049   1_655     S
C67   H68    0.97049   1_455     S
H69   C67    0.97029       .     S
C67   H69    0.97029       .     S
H72   O71    0.86109       .     S
O71   H72    0.86109       .     S
H73   O71    0.84564   1_545     S
O71   H73    0.84564   1_565     S
