data_I
_chemical_name_common  '/data/user2/wty/HOF/MOFDiff/mofdiff/data/test/210-xho'
_cell_length_a 12.97800
_cell_length_b  9.63820
_cell_length_c  9.94710
_cell_angle_alpha 90.00000
_cell_angle_beta  121.81200
_cell_angle_gamma 90.00000
_space_group_name_H-M_alt      'P 1'


loop_
_space_group_symop_operation_xyz
  'x, y, z' 

loop_
_atom_site_label
_atom_site_fract_x
_atom_site_fract_y
_atom_site_fract_z
_atom_site_type_symbol
N0     0.63938  0.26208   0.6713     N
H1     0.68664  0.26082  0.77507     H
H2     0.58114  0.20027  0.62279     H
N3     0.74152   0.4493   0.6578     N
H4     0.78959  0.44947  0.76143     H
H5     0.75125   0.5116  0.60071     H
C6      0.5366   0.2311   0.3323     C
H7     0.55984  0.14591  0.38881     H
C8      0.5755   0.3565   0.4136     C
C9      0.6558   0.3565   0.5886     C
C10    0.53905    0.482   0.3314     C
H11    0.56774  0.56721  0.38696     H
loop_
_geom_bond_atom_site_label_1
_geom_bond_atom_site_label_2
_geom_bond_distance
_geom_bond_site_symmetry_2
_ccdc_geom_bond_type
N0    H1     0.87997       .     S
H1    N0     0.87997       .     S
N0    H2     0.88007       .     S
H2    N0     0.88007       .     S
N0    C9     1.31723       .     S
C9    N0     1.31723       .     S
N3    H4     0.87966       .     S
H4    N3     0.87966       .     S
N3    H5     0.88011       .     S
H5    N3     0.88011       .     S
N3    C9     1.30541       .     S
C9    N3     1.30541       .     S
C6    H7     0.94993       .     S
H7    C6     0.94993       .     S
C6    C8     1.39256       .     S
C8    C6     1.39256       .     S
C8    C9     1.48448       .     S
C9    C8     1.48448       .     S
C8    C10    1.39559       .     S
C10   C8     1.39559       .     S
C10   H11    0.94953       .     S
H11   C10    0.94953       .     S
H1    N0     0.87997       .     S
N0    H1     0.87997       .     S
H2    N0     0.88007       .     S
N0    H2     0.88007       .     S
C9    N0     1.31723       .     S
N0    C9     1.31723       .     S
H4    N3     0.87966       .     S
N3    H4     0.87966       .     S
H5    N3     0.88011       .     S
N3    H5     0.88011       .     S
C9    N3     1.30541       .     S
N3    C9     1.30541       .     S
H7    C6     0.94993       .     S
C6    H7     0.94993       .     S
C8    C6     1.39256       .     S
C6    C8     1.39256       .     S
C9    C8     1.48448       .     S
C8    C9     1.48448       .     S
C10   C8     1.39559       .     S
C8    C10    1.39559       .     S
H11   C10    0.94953       .     S
C10   H11    0.94953       .     S
