data_I
_chemical_name_common  '/data/user2/wty/HOF/MOFDiff/mofdiff/data/test/211-tcbp-1'
_cell_length_a 12.64770
_cell_length_b 33.53530
_cell_length_c 10.53700
_cell_angle_alpha 90.00000
_cell_angle_beta  102.96100
_cell_angle_gamma 90.00000
_space_group_name_H-M_alt      'P 1'


loop_
_space_group_symop_operation_xyz
  'x, y, z' 

loop_
_atom_site_label
_atom_site_fract_x
_atom_site_fract_y
_atom_site_fract_z
_atom_site_type_symbol
O0     0.73949  0.72331  0.67514     O
H1     0.75972  0.74352  0.71746     H
O2     0.70709  0.28912  0.72897     O
O3      0.7966  0.69362  0.86769     O
O4     0.87938  0.30793   0.7731     O
C5     0.54086  0.50442  0.31288     C
C6     0.66026  0.54028  0.49054     C
C7      0.6939  0.57916   0.5557     C
C8     0.64962  0.46824  0.49739     C
C9     0.69331  0.50408  0.55254     C
H10     0.7447   0.5039  0.63099     H
C11    0.74706  0.35451   0.6717     C
C12    0.68332  0.42919  0.56106     C
C13    0.58765  0.53978  0.36974     C
H14    0.56971   0.5637   0.3255     H
C15    0.60813  0.39851  0.55521     C
H16    0.53611  0.40272  0.51316     H
C17    0.73801  0.65333  0.67999     C
C18      0.572  0.46894   0.3809     C
H19     0.5398  0.44513  0.34714     H
C20     0.7608  0.69264   0.7494     C
C21    0.63966  0.36166   0.6116     C
H22    0.58826  0.34167  0.60894     H
C23     0.7172   0.6507   0.5455     C
H24    0.71719  0.67367  0.49599     H
C25    0.71606  0.58215  0.69089     C
H26    0.71627  0.55921  0.74051     H
C27    0.73785  0.61874  0.75309     C
H28    0.75232  0.62013   0.8435     H
C29     0.6964  0.61397  0.48403     C
H30    0.68402  0.61256  0.39374     H
C31     0.7826  0.31438   0.7306     C
C32    0.82201   0.3848   0.6779     C
H33    0.89425  0.38025  0.71831     H
C34    0.79059  0.42213   0.6243     C
H35    0.84163  0.44242  0.63091     H
H36    0.59185  0.73375  0.47707     H
C37     0.5381   0.7521   0.4317     C
H38    0.57303  0.77319  0.39524     H
C39     0.5403   0.7701   0.4406     C
H40    0.55323  0.79704  0.41757     H
H41    0.50558  0.75565  0.36384     H
H42    0.60813  0.75753  0.47924     H
N43     0.4733  0.77004   0.5296     N
H44    0.51167  0.78359  0.59708     H
H45    0.41576   0.7847  0.49367     H
C46     0.4348  0.73407   0.5791     C
H47    0.49535  0.71732  0.61626     H
H48     0.3873  0.72017   0.5092     H
H49    0.39597  0.74078  0.64468     H
H50    0.48891  0.73826  0.36316     H
loop_
_geom_bond_atom_site_label_1
_geom_bond_atom_site_label_2
_geom_bond_distance
_geom_bond_site_symmetry_2
_ccdc_geom_bond_type
O0    H1     0.82005       .     S
H1    O0     0.82005       .     S
O0    C20    1.28381       .     S
C20   O0     1.28381       .     S
O2    C31    1.27381       .     S
C31   O2     1.27381       .     S
O3    C20    1.22740       .     S
C20   O3     1.22740       .     S
O4    C31    1.22463       .     S
C31   O4     1.22463       .     S
C5    C13    1.39867       .     S
C13   C5     1.39867       .     S
C5    C18    1.39925       .     S
C18   C5     1.39925       .     S
C6    C7     1.49044       .     S
C7    C6     1.49044       .     S
C6    C9     1.39741       .     S
C9    C6     1.39741       .     S
C6    C13    1.39265       .     S
C13   C6     1.39265       .     S
C7    C25    1.39237       .     S
C25   C7     1.39237       .     S
C7    C29    1.39455       .     S
C29   C7     1.39455       .     S
C8    C9     1.39412       .     S
C9    C8     1.39412       .     S
C8    C12    1.48944       .     S
C12   C8     1.48944       .     S
C8    C18    1.38940       .     S
C18   C8     1.38940       .     S
C9    H10    0.92994       .     S
H10   C9     0.92994       .     S
C11   C21    1.38485       .     S
C21   C11    1.38485       .     S
C11   C31    1.50771       .     S
C31   C11    1.50771       .     S
C11   C32    1.38091       .     S
C32   C11    1.38091       .     S
C12   C15    1.39299       .     S
C15   C12    1.39299       .     S
C12   C34    1.39113       .     S
C34   C12    1.39113       .     S
C13   H14    0.92995       .     S
H14   C13    0.92995       .     S
C15   H16    0.93001       .     S
H16   C15    0.93001       .     S
C15   C21    1.39030       .     S
C21   C15    1.39030       .     S
C17   C20    1.50375       .     S
C20   C17    1.50375       .     S
C17   C23    1.38491       .     S
C23   C17    1.38491       .     S
C17   C27    1.39268       .     S
C27   C17    1.39268       .     S
C18   H19    0.93004       .     S
H19   C18    0.93004       .     S
C21   H22    0.92985       .     S
H22   C21    0.92985       .     S
C23   H24    0.93032       .     S
H24   C23    0.93032       .     S
C23   C29    1.38907       .     S
C29   C23    1.38907       .     S
C25   H26    0.92983       .     S
H26   C25    0.92983       .     S
C25   C27    1.38930       .     S
C27   C25    1.38930       .     S
C27   H28    0.93005       .     S
H28   C27    0.93005       .     S
C29   H30    0.93009       .     S
H30   C29    0.93009       .     S
C32   H33    0.92998       .     S
H33   C32    0.92998       .     S
C32   C34    1.39406       .     S
C34   C32    1.39406       .     S
C34   H35    0.92973       .     S
H35   C34    0.92973       .     S
H36   C37    0.96104       .     S
C37   H36    0.96104       .     S
C37   H38    0.95871       .     S
H38   C37    0.95871       .     S
C37   C39    0.61055       .     S
C39   C37    0.61055       .     S
C37   H41    0.75013       .     S
H41   C37    0.75013       .     S
C37   H42    0.93250       .     S
H42   C37    0.93250       .     S
C37   N43    1.57386       .     S
N43   C37    1.57386       .     S
C37   H50    0.96047       .     S
H50   C37    0.96047       .     S
H38   C39    0.70661       .     S
C39   H38    0.70661       .     S
C39   H40    0.95898       .     S
H40   C39    0.95898       .     S
C39   H41    0.96048       .     S
H41   C39    0.96048       .     S
C39   H42    0.96061       .     S
H42   C39    0.96061       .     S
C39   N43    1.39786       .     S
N43   C39    1.39786       .     S
H41   H50    0.61962       .     S
H50   H41    0.61962       .     S
N43   H44    0.89038       .     S
H44   N43    0.89038       .     S
N43   H45    0.88941       .     S
H45   N43    0.88941       .     S
N43   C46    1.44158       .     S
C46   N43    1.44158       .     S
C46   H47    0.95959       .     S
H47   C46    0.95959       .     S
C46   H48    0.96031       .     S
H48   C46    0.96031       .     S
C46   H49    0.95998       .     S
H49   C46    0.95998       .     S
H1    O0     0.82005       .     S
O0    H1     0.82005       .     S
C20   O0     1.28381       .     S
O0    C20    1.28381       .     S
C31   O2     1.27381       .     S
O2    C31    1.27381       .     S
C20   O3     1.22740       .     S
O3    C20    1.22740       .     S
C31   O4     1.22463       .     S
O4    C31    1.22463       .     S
C13   C5     1.39867       .     S
C5    C13    1.39867       .     S
C18   C5     1.39925       .     S
C5    C18    1.39925       .     S
C7    C6     1.49044       .     S
C6    C7     1.49044       .     S
C9    C6     1.39741       .     S
C6    C9     1.39741       .     S
C13   C6     1.39265       .     S
C6    C13    1.39265       .     S
C25   C7     1.39237       .     S
C7    C25    1.39237       .     S
C29   C7     1.39455       .     S
C7    C29    1.39455       .     S
C9    C8     1.39412       .     S
C8    C9     1.39412       .     S
C12   C8     1.48944       .     S
C8    C12    1.48944       .     S
C18   C8     1.38940       .     S
C8    C18    1.38940       .     S
H10   C9     0.92994       .     S
C9    H10    0.92994       .     S
C21   C11    1.38485       .     S
C11   C21    1.38485       .     S
C31   C11    1.50771       .     S
C11   C31    1.50771       .     S
C32   C11    1.38091       .     S
C11   C32    1.38091       .     S
C15   C12    1.39299       .     S
C12   C15    1.39299       .     S
C34   C12    1.39113       .     S
C12   C34    1.39113       .     S
H14   C13    0.92995       .     S
C13   H14    0.92995       .     S
H16   C15    0.93001       .     S
C15   H16    0.93001       .     S
C21   C15    1.39030       .     S
C15   C21    1.39030       .     S
C20   C17    1.50375       .     S
C17   C20    1.50375       .     S
C23   C17    1.38491       .     S
C17   C23    1.38491       .     S
C27   C17    1.39268       .     S
C17   C27    1.39268       .     S
H19   C18    0.93004       .     S
C18   H19    0.93004       .     S
H22   C21    0.92985       .     S
C21   H22    0.92985       .     S
H24   C23    0.93032       .     S
C23   H24    0.93032       .     S
C29   C23    1.38907       .     S
C23   C29    1.38907       .     S
H26   C25    0.92983       .     S
C25   H26    0.92983       .     S
C27   C25    1.38930       .     S
C25   C27    1.38930       .     S
H28   C27    0.93005       .     S
C27   H28    0.93005       .     S
H30   C29    0.93009       .     S
C29   H30    0.93009       .     S
H33   C32    0.92998       .     S
C32   H33    0.92998       .     S
C34   C32    1.39406       .     S
C32   C34    1.39406       .     S
H35   C34    0.92973       .     S
C34   H35    0.92973       .     S
C37   H36    0.96104       .     S
H36   C37    0.96104       .     S
H38   C37    0.95871       .     S
C37   H38    0.95871       .     S
C39   C37    0.61055       .     S
C37   C39    0.61055       .     S
H41   C37    0.75013       .     S
C37   H41    0.75013       .     S
H42   C37    0.93250       .     S
C37   H42    0.93250       .     S
N43   C37    1.57386       .     S
C37   N43    1.57386       .     S
H50   C37    0.96047       .     S
C37   H50    0.96047       .     S
C39   H38    0.70661       .     S
H38   C39    0.70661       .     S
H40   C39    0.95898       .     S
C39   H40    0.95898       .     S
H41   C39    0.96048       .     S
C39   H41    0.96048       .     S
H42   C39    0.96061       .     S
C39   H42    0.96061       .     S
N43   C39    1.39786       .     S
C39   N43    1.39786       .     S
H50   H41    0.61962       .     S
H41   H50    0.61962       .     S
H44   N43    0.89038       .     S
N43   H44    0.89038       .     S
H45   N43    0.88941       .     S
N43   H45    0.88941       .     S
C46   N43    1.44158       .     S
N43   C46    1.44158       .     S
H47   C46    0.95959       .     S
C46   H47    0.95959       .     S
H48   C46    0.96031       .     S
C46   H48    0.96031       .     S
H49   C46    0.95998       .     S
C46   H49    0.95998       .     S
