data_I
_chemical_name_common  '/data/user2/wty/HOF/MOFDiff/mofdiff/data/test/211-btba-1c1_sq'
_cell_length_a  9.50470
_cell_length_b 15.31140
_cell_length_c 28.06730
_cell_angle_alpha 90.00000
_cell_angle_beta  95.27600
_cell_angle_gamma 90.00000
_space_group_name_H-M_alt      'P 1'


loop_
_space_group_symop_operation_xyz
  'x, y, z' 

loop_
_atom_site_label
_atom_site_fract_x
_atom_site_fract_y
_atom_site_fract_z
_atom_site_type_symbol
O0     0.56131  0.38897  0.74528     O
O1     0.80383  0.81287   0.6843     O
H2     0.83909   0.8408  0.70731     H
O3     0.69055  0.76002  0.29855     O
H4     0.65086  0.78388  0.27484     H
O5      0.9527  0.33168  0.26966     O
O6     0.81051  0.27563  0.32045     O
O7     0.70193  0.32354  0.69729     O
O8     0.84157  0.87087  0.29507     O
C9     0.32792  0.54876  0.53834     C
C10     0.1121  0.48183  0.42382     C
C11    0.39455  0.50188  0.58113     C
C12    0.25389   0.5004  0.50202     C
H13    0.25586  0.43978  0.50407     H
C14    0.33227   0.6402  0.53358     C
C15    0.17707  0.53908  0.46276     C
C16    0.42619  0.69619  0.56621     C
C17    0.24831  0.67917  0.49583     C
H18    0.24658  0.73979  0.49372     H
C19    0.16696  0.63076  0.46118     C
C20    0.07084  0.67759  0.42483     C
C21    0.52376  0.41604   0.6618     C
C22    0.43695  0.48783  0.66706     C
H23    0.42145  0.50718  0.69755     H
C24    0.47745   0.4279  0.57603     C
H25    0.48919  0.40653  0.54563     H
C26    0.03535  0.40793  0.43421     C
H27    0.02765  0.39265  0.46594     H
C28    0.98303  0.37798  0.35013     C
C29    0.54255  0.38594  0.61601     C
H30    0.59914  0.33736  0.61218     H
C31    0.97011  0.35669  0.39776     C
H32    0.91769  0.30808  0.40519     H
C33    0.56476     0.67  0.58057     C
H34    0.59891  0.61814  0.56879     H
C35    0.37328  0.53085  0.62728     C
H36    0.31619  0.57916  0.63124     H
O37    0.64644  0.92067  0.68058     O
C38    0.93447   0.6457  0.41168     C
H39    0.90247  0.59667  0.42699     H
C40    0.12713  0.50193  0.37595     C
H41    0.18019  0.55022  0.36845     H
C42    0.60176  0.37201  0.70436     C
C43    0.89254  0.76066  0.35372     C
C44    0.06331  0.45018  0.33966     C
H45     0.0743   0.4639  0.30793     H
C46    0.65182   0.7201  0.61205     C
H47    0.74323  0.70146  0.62155     H
C48    0.90878  0.32354  0.31093     C
C49    0.80536  0.80356  0.31307     C
C50    0.84667   0.6863  0.37615     C
H51    0.75716  0.66379  0.36734     H
C52    0.11364  0.75395  0.40343     C
H53    0.20227  0.77737  0.41264     H
C54    0.38018  0.77637  0.58216     C
H55     0.2899  0.79611  0.57191     H
C56    0.02493  0.79534  0.36844     C
H57    0.05413  0.84673  0.35469     H
C58    0.60245  0.79827  0.62942     C
C59    0.46789  0.82719  0.61326     C
H60    0.43632  0.88101  0.62335     H
C61    0.68716  0.85125  0.66669     C
N62    0.80468  0.11282  0.28348     N
H63    0.78663  0.16889  0.28868     H
H64    0.87183  0.11051  0.26341     H
C65     0.6759  0.07167  0.26038     C
H66    0.65013  0.09943  0.23017     H
H67    0.60031    0.078  0.28059     H
H68    0.69323  0.01074  0.25534     H
C69     0.8595  0.07201  0.32963     C
H70    0.88566  0.01254  0.32413     H
H71    0.78755  0.07337  0.35147     H
H72    0.94079   0.1038  0.34305     H
loop_
_geom_bond_atom_site_label_1
_geom_bond_atom_site_label_2
_geom_bond_distance
_geom_bond_site_symmetry_2
_ccdc_geom_bond_type
H63   O6     1.86561       .     S
O6    H63    1.86561       .     S
O0    C42    1.27104       .     S
C42   O0     1.27104       .     S
O1    H2     0.82005       .     S
H2    O1     0.82005       .     S
O1    C61    1.31092       .     S
C61   O1     1.31092       .     S
O3    H4     0.82004       .     S
H4    O3     0.82004       .     S
O3    C49    1.31131       .     S
C49   O3     1.31131       .     S
O5    C48    1.27298       .     S
C48   O5     1.27298       .     S
O6    C48    1.23605       .     S
C48   O6     1.23605       .     S
O7    C42    1.23748       .     S
C42   O7     1.23748       .     S
O8    C49    1.21154       .     S
C49   O8     1.21154       .     S
C9    C11    1.48957       .     S
C11   C9     1.48957       .     S
C9    C12    1.39666       .     S
C12   C9     1.39666       .     S
C9    C14    1.40740       .     S
C14   C9     1.40740       .     S
C10   C15    1.49001       .     S
C15   C10    1.49001       .     S
C10   C26    1.39163       .     S
C26   C10    1.39163       .     S
C10   C40    1.39844       .     S
C40   C10    1.39844       .     S
C11   C24    1.39470       .     S
C24   C11    1.39470       .     S
C11   C35    1.40128       .     S
C35   C11    1.40128       .     S
C12   H13    0.93004       .     S
H13   C12    0.93004       .     S
C12   C15    1.39647       .     S
C15   C12    1.39647       .     S
C14   C16    1.49004       .     S
C16   C14    1.49004       .     S
C14   C17    1.40000       .     S
C17   C14    1.40000       .     S
C15   C19    1.40745       .     S
C19   C15    1.40745       .     S
C16   C33    1.40010       .     S
C33   C16    1.40010       .     S
C16   C54    1.39098       .     S
C54   C16    1.39098       .     S
C17   H18    0.93011       .     S
H18   C17    0.93011       .     S
C17   C19    1.39814       .     S
C19   C17    1.39814       .     S
C19   C20    1.48939       .     S
C20   C19    1.48939       .     S
C20   C38    1.40238   1_455     S
C38   C20    1.40238   1_655     S
C20   C52    1.39218       .     S
C52   C20    1.39218       .     S
C21   C22    1.39041       .     S
C22   C21    1.39041       .     S
C21   C29    1.39221       .     S
C29   C21    1.39221       .     S
C21   C42    1.50605       .     S
C42   C21    1.50605       .     S
C22   H23    0.93006       .     S
H23   C22    0.93006       .     S
C22   C35    1.38653       .     S
C35   C22    1.38653       .     S
C24   H25    0.93008       .     S
H25   C24    0.93008       .     S
C24   C29    1.38820       .     S
C29   C24    1.38820       .     S
C26   H27    0.93016       .     S
H27   C26    0.93016       .     S
C26   C31    1.38925   1_455     S
C31   C26    1.38925   1_655     S
C28   C31    1.39237       .     S
C31   C28    1.39237       .     S
C28   C44    1.38993   1_655     S
C44   C28    1.38993   1_455     S
C28   C48    1.50352       .     S
C48   C28    1.50352       .     S
C29   H30    0.92993       .     S
H30   C29    0.92993       .     S
C31   H32    0.92995       .     S
H32   C31    0.92995       .     S
C33   H34    0.93001       .     S
H34   C33    0.93001       .     S
C33   C46    1.38542       .     S
C46   C33    1.38542       .     S
C35   H36    0.93007       .     S
H36   C35    0.93007       .     S
O37   C61    1.20802       .     S
C61   O37    1.20802       .     S
C38   H39    0.92993       .     S
H39   C38    0.92993       .     S
C38   C50    1.38718       .     S
C50   C38    1.38718       .     S
C40   H41    0.92998       .     S
H41   C40    0.92998       .     S
C40   C44    1.38551       .     S
C44   C40    1.38551       .     S
C43   C49    1.49865       .     S
C49   C43    1.49865       .     S
C43   C50    1.39039       .     S
C50   C43    1.39039       .     S
C43   C56    1.39299   1_655     S
C56   C43    1.39299   1_455     S
C44   H45    0.93020       .     S
H45   C44    0.93020       .     S
C46   H47    0.92995       .     S
H47   C46    0.92995       .     S
C46   C58    1.39014       .     S
C58   C46    1.39014       .     S
C50   H51    0.93008       .     S
H51   C50    0.93008       .     S
C52   H53    0.93006       .     S
H53   C52    0.93006       .     S
C52   C56    1.38735       .     S
C56   C52    1.38735       .     S
C54   H55    0.93007       .     S
H55   C54    0.93007       .     S
C54   C59    1.38873       .     S
C59   C54    1.38873       .     S
C56   H57    0.92995       .     S
H57   C56    0.92995       .     S
C58   C59    1.38955       .     S
C59   C58    1.38955       .     S
C58   C61    1.49855       .     S
C61   C58    1.49855       .     S
C59   H60    0.93002       .     S
H60   C59    0.93002       .     S
N62   H63    0.89016       .     S
H63   N62    0.89016       .     S
N62   H64    0.88997       .     S
H64   N62    0.88997       .     S
N62   C65    1.47296       .     S
C65   N62    1.47296       .     S
N62   C69    1.48850       .     S
C69   N62    1.48850       .     S
C65   H66    0.95991       .     S
H66   C65    0.95991       .     S
C65   H67    0.96036       .     S
H67   C65    0.96036       .     S
C65   H68    0.96009       .     S
H68   C65    0.96009       .     S
C69   H70    0.96013       .     S
H70   C69    0.96013       .     S
C69   H71    0.95966       .     S
H71   C69    0.95966       .     S
C69   H72    0.96034       .     S
H72   C69    0.96034       .     S
O6    H63    1.86561       .     S
H63   O6     1.86561       .     S
C42   O0     1.27104       .     S
O0    C42    1.27104       .     S
H2    O1     0.82005       .     S
O1    H2     0.82005       .     S
C61   O1     1.31092       .     S
O1    C61    1.31092       .     S
H4    O3     0.82004       .     S
O3    H4     0.82004       .     S
C49   O3     1.31131       .     S
O3    C49    1.31131       .     S
C48   O5     1.27298       .     S
O5    C48    1.27298       .     S
C48   O6     1.23605       .     S
O6    C48    1.23605       .     S
C42   O7     1.23748       .     S
O7    C42    1.23748       .     S
C49   O8     1.21154       .     S
O8    C49    1.21154       .     S
C11   C9     1.48957       .     S
C9    C11    1.48957       .     S
C12   C9     1.39666       .     S
C9    C12    1.39666       .     S
C14   C9     1.40740       .     S
C9    C14    1.40740       .     S
C15   C10    1.49001       .     S
C10   C15    1.49001       .     S
C26   C10    1.39163       .     S
C10   C26    1.39163       .     S
C40   C10    1.39844       .     S
C10   C40    1.39844       .     S
C24   C11    1.39470       .     S
C11   C24    1.39470       .     S
C35   C11    1.40128       .     S
C11   C35    1.40128       .     S
H13   C12    0.93004       .     S
C12   H13    0.93004       .     S
C15   C12    1.39647       .     S
C12   C15    1.39647       .     S
C16   C14    1.49004       .     S
C14   C16    1.49004       .     S
C17   C14    1.40000       .     S
C14   C17    1.40000       .     S
C19   C15    1.40745       .     S
C15   C19    1.40745       .     S
C33   C16    1.40010       .     S
C16   C33    1.40010       .     S
C54   C16    1.39098       .     S
C16   C54    1.39098       .     S
H18   C17    0.93011       .     S
C17   H18    0.93011       .     S
C19   C17    1.39814       .     S
C17   C19    1.39814       .     S
C20   C19    1.48939       .     S
C19   C20    1.48939       .     S
C38   C20    1.40238   1_655     S
C20   C38    1.40238   1_455     S
C52   C20    1.39218       .     S
C20   C52    1.39218       .     S
C22   C21    1.39041       .     S
C21   C22    1.39041       .     S
C29   C21    1.39221       .     S
C21   C29    1.39221       .     S
C42   C21    1.50605       .     S
C21   C42    1.50605       .     S
H23   C22    0.93006       .     S
C22   H23    0.93006       .     S
C35   C22    1.38653       .     S
C22   C35    1.38653       .     S
H25   C24    0.93008       .     S
C24   H25    0.93008       .     S
C29   C24    1.38820       .     S
C24   C29    1.38820       .     S
H27   C26    0.93016       .     S
C26   H27    0.93016       .     S
C31   C26    1.38925   1_655     S
C26   C31    1.38925   1_455     S
C31   C28    1.39237       .     S
C28   C31    1.39237       .     S
C44   C28    1.38993   1_455     S
C28   C44    1.38993   1_655     S
C48   C28    1.50352       .     S
C28   C48    1.50352       .     S
H30   C29    0.92993       .     S
C29   H30    0.92993       .     S
H32   C31    0.92995       .     S
C31   H32    0.92995       .     S
H34   C33    0.93001       .     S
C33   H34    0.93001       .     S
C46   C33    1.38542       .     S
C33   C46    1.38542       .     S
H36   C35    0.93007       .     S
C35   H36    0.93007       .     S
C61   O37    1.20802       .     S
O37   C61    1.20802       .     S
H39   C38    0.92993       .     S
C38   H39    0.92993       .     S
C50   C38    1.38718       .     S
C38   C50    1.38718       .     S
H41   C40    0.92998       .     S
C40   H41    0.92998       .     S
C44   C40    1.38551       .     S
C40   C44    1.38551       .     S
C49   C43    1.49865       .     S
C43   C49    1.49865       .     S
C50   C43    1.39039       .     S
C43   C50    1.39039       .     S
C56   C43    1.39299   1_455     S
C43   C56    1.39299   1_655     S
H45   C44    0.93020       .     S
C44   H45    0.93020       .     S
H47   C46    0.92995       .     S
C46   H47    0.92995       .     S
C58   C46    1.39014       .     S
C46   C58    1.39014       .     S
H51   C50    0.93008       .     S
C50   H51    0.93008       .     S
H53   C52    0.93006       .     S
C52   H53    0.93006       .     S
C56   C52    1.38735       .     S
C52   C56    1.38735       .     S
H55   C54    0.93007       .     S
C54   H55    0.93007       .     S
C59   C54    1.38873       .     S
C54   C59    1.38873       .     S
H57   C56    0.92995       .     S
C56   H57    0.92995       .     S
C59   C58    1.38955       .     S
C58   C59    1.38955       .     S
C61   C58    1.49855       .     S
C58   C61    1.49855       .     S
H60   C59    0.93002       .     S
C59   H60    0.93002       .     S
H63   N62    0.89016       .     S
N62   H63    0.89016       .     S
H64   N62    0.88997       .     S
N62   H64    0.88997       .     S
C65   N62    1.47296       .     S
N62   C65    1.47296       .     S
C69   N62    1.48850       .     S
N62   C69    1.48850       .     S
H66   C65    0.95991       .     S
C65   H66    0.95991       .     S
H67   C65    0.96036       .     S
C65   H67    0.96036       .     S
H68   C65    0.96009       .     S
C65   H68    0.96009       .     S
H70   C69    0.96013       .     S
C69   H70    0.96013       .     S
H71   C69    0.95966       .     S
C69   H71    0.95966       .     S
H72   C69    0.96034       .     S
C69   H72    0.96034       .     S
