data_I
_chemical_name_common  '/data/user2/wty/HOF/MOFDiff/mofdiff/data/test/211-ptba-1a_sq'
_cell_length_a  9.46330
_cell_length_b 15.44120
_cell_length_c 27.29190
_cell_angle_alpha 90.00000
_cell_angle_beta  93.87000
_cell_angle_gamma 90.00000
_space_group_name_H-M_alt      'P 1'


loop_
_space_group_symop_operation_xyz
  'x, y, z' 

loop_
_atom_site_label
_atom_site_fract_x
_atom_site_fract_y
_atom_site_fract_z
_atom_site_type_symbol
N0     0.30175  0.15236  0.27337     N
H1     0.27633  0.20678  0.27894     H
H2     0.36873  0.15369    0.252     H
C3      0.3629  0.11393  0.32049     C
H4     0.39139  0.05529  0.31488     H
H5     0.29286  0.11466  0.34435     H
H6      0.4437   0.1472  0.33247     H
C7      0.1793   0.1057  0.25127     C
H8     0.15161  0.13049  0.21983     H
H9     0.10224   0.1099  0.27227     H
H10    0.20369  0.04586  0.24717     H
O11    0.43798  0.37645  0.25704     O
O12    0.05664  0.34294  0.73304     O
O13    0.30168  0.76891  0.69759     O
H14    0.34385  0.79618  0.71983     H
O15    0.19159  0.28462  0.67793     O
O16    0.29933  0.31474  0.30993     O
N17    0.74794  0.50064  0.49862     N
O18    0.19987  0.79831  0.31275     O
H19    0.16187  0.82694  0.29024     H
N20    0.75066  0.67957  0.50243     N
O21    0.14771  0.87788  0.70058     O
O22    0.35399  0.90705  0.31511     O
C23    0.66946  0.63822  0.46788     C
C24    0.67936   0.5473  0.46317     C
C25    0.57218  0.69219  0.43561     C
C26    0.61508  0.49816  0.42049     C
C27    0.88179  0.48664  0.57597     C
C28    0.81824  0.54197  0.53581     C
C29     0.4706  0.37918   0.3895     C
H30      0.418   0.3298  0.39529     H
C31    0.56002   0.4822   0.3335     C
H32    0.56972  0.50109  0.30154     H
C33    0.95106  0.41021  0.56459     C
H34    0.95053  0.39196   0.5321     H
C35    0.83113  0.63318  0.53493     C
C36    0.02046  0.36141  0.60122     C
H37    0.06964  0.31187   0.5931     H
C38    0.53981  0.42237  0.42849     C
H39    0.53617  0.40078  0.46019     H
C40     0.8758  0.51033   0.6253     C
H41    0.82733  0.56012  0.63347     H
C42    0.62634  0.52719  0.37247     C
H43    0.67841  0.57677  0.36665     H
C44    0.06462  0.65017  0.58383     C
H45    0.09733  0.60032  0.56917     H
C46    0.01718  0.38601  0.65021     C
C47    0.47898    0.409  0.34166     C
C48    0.94171  0.45991  0.66185     C
H49    0.93571  0.47541  0.69457     H
C50    0.92993  0.68203  0.56948     C
C51    0.43607  0.66311  0.42068     C
H52    0.40277  0.61153   0.4332     H
C53    0.39915  0.36261  0.30011     C
C54    0.10328  0.76755  0.64073     C
C55    0.09502  0.33325  0.68957     C
C56    0.35091  0.71033  0.38755     C
H57    0.26126  0.68992  0.37733     H
C58    0.14944  0.69175  0.61945     C
H59    0.23787  0.66907  0.62929     H
C60     0.3987  0.78841  0.36936     C
C61    0.88745  0.76039  0.58892     C
H62    0.80057  0.78431  0.57824     H
C63    0.18633  0.81103   0.6823     C
C64    0.97365  0.80275  0.62397     C
H65    0.94479  0.85538  0.63651     H
C66    0.61605  0.77235  0.41926     C
H67     0.7042  0.79396  0.43037     H
C68    0.52991  0.82016  0.38669     C
H69    0.55994  0.87404  0.37627     H
C70    0.31502  0.83786  0.33024     C
N71    0.19265  0.12139  0.71493     N
H72    0.21464  0.17627  0.70901     H
H73    0.12511  0.12155   0.7361     H
C74     0.1354  0.08134  0.66852     C
H75    0.20657  0.08206  0.64507     H
H76    0.05411  0.11336  0.65577     H
H77    0.10841  0.02259  0.67461     H
C78     0.3191  0.07773   0.7381     C
H79    0.39684  0.08412  0.71755     H
H80     0.2991  0.01731  0.74223     H
H81    0.34344  0.10338  0.76959     H
loop_
_geom_bond_atom_site_label_1
_geom_bond_atom_site_label_2
_geom_bond_distance
_geom_bond_site_symmetry_2
_ccdc_geom_bond_type
H1    O16    1.87533       .     S
O16   H1     1.87533       .     S
H72   O15    1.88181       .     S
O15   H72    1.88181       .     S
N0    H1     0.88996       .     S
H1    N0     0.88996       .     S
N0    H2     0.89008       .     S
H2    N0     0.89008       .     S
N0    C3     1.49677       .     S
C3    N0     1.49677       .     S
N0    C7     1.45990       .     S
C7    N0     1.45990       .     S
C3    H4     0.95999       .     S
H4    C3     0.95999       .     S
C3    H5     0.96008       .     S
H5    C3     0.96008       .     S
C3    H6     0.96007       .     S
H6    C3     0.96007       .     S
C7    H8     0.95974       .     S
H8    C7     0.95974       .     S
C7    H9     0.95963       .     S
H9    C7     0.95963       .     S
C7    H10    0.96076       .     S
H10   C7     0.96076       .     S
O11   C53    1.27307       .     S
C53   O11    1.27307       .     S
O12   C55    1.27278       .     S
C55   O12    1.27278       .     S
O13   H14    0.81993       .     S
H14   O13    0.81993       .     S
O13   C63    1.31424       .     S
C63   O13    1.31424       .     S
O15   C55    1.24062       .     S
C55   O15    1.24062       .     S
O16   C53    1.24286       .     S
C53   O16    1.24286       .     S
N17   C24    1.33850       .     S
C24   N17    1.33850       .     S
N17   C28    1.33750       .     S
C28   N17    1.33750       .     S
O18   H19    0.81997       .     S
H19   O18    0.81997       .     S
O18   C70    1.31074       .     S
C70   O18    1.31074       .     S
N20   C23    1.33771       .     S
C23   N20    1.33771       .     S
N20   C35    1.33738       .     S
C35   N20    1.33738       .     S
O21   C63    1.21351       .     S
C63   O21    1.21351       .     S
O22   C70    1.21181       .     S
C70   O22    1.21181       .     S
C23   C24    1.41347       .     S
C24   C23    1.41347       .     S
C23   C25    1.48600       .     S
C25   C23    1.48600       .     S
C24   C26    1.48558       .     S
C26   C24    1.48558       .     S
C25   C51    1.39853       .     S
C51   C25    1.39853       .     S
C25   C66    1.38872       .     S
C66   C25    1.38872       .     S
C26   C38    1.39485       .     S
C38   C26    1.39485       .     S
C26   C42    1.39596       .     S
C42   C26    1.39596       .     S
C27   C28    1.48457       .     S
C28   C27    1.48457       .     S
C27   C33    1.39515       .     S
C33   C27    1.39515       .     S
C27   C40    1.39996       .     S
C40   C27    1.39996       .     S
C28   C35    1.41401       .     S
C35   C28    1.41401       .     S
C29   H30    0.92992       .     S
H30   C29    0.92992       .     S
C29   C38    1.38274       .     S
C38   C29    1.38274       .     S
C29   C47    1.39176       .     S
C47   C29    1.39176       .     S
C31   H32    0.93013       .     S
H32   C31    0.93013       .     S
C31   C42    1.38476       .     S
C42   C31    1.38476       .     S
C31   C47    1.39225       .     S
C47   C31    1.39225       .     S
C33   H34    0.93011       .     S
H34   C33    0.93011       .     S
C33   C36    1.38200   1_655     S
C36   C33    1.38200   1_455     S
C35   C50    1.48771       .     S
C50   C35    1.48771       .     S
C36   H37    0.92994       .     S
H37   C36    0.92994       .     S
C36   C46    1.39230       .     S
C46   C36    1.39230       .     S
C38   H39    0.92997       .     S
H39   C38    0.92997       .     S
C40   H41    0.93005       .     S
H41   C40    0.93005       .     S
C40   C48    1.38066       .     S
C48   C40    1.38066       .     S
C42   H43    0.92990       .     S
H43   C42    0.92990       .     S
C44   H45    0.93012       .     S
H45   C44    0.93012       .     S
C44   C50    1.39738   1_455     S
C50   C44    1.39738   1_655     S
C44   C58    1.37704       .     S
C58   C44    1.37704       .     S
C46   C48    1.39418   1_455     S
C48   C46    1.39418   1_655     S
C46   C55    1.50114       .     S
C55   C46    1.50114       .     S
C47   C53    1.50136       .     S
C53   C47    1.50136       .     S
C48   H49    0.92994       .     S
H49   C48    0.92994       .     S
C50   C61    1.39137       .     S
C61   C50    1.39137       .     S
C51   H52    0.93002       .     S
H52   C51    0.93002       .     S
C51   C56    1.37851       .     S
C56   C51    1.37851       .     S
C54   C58    1.39007       .     S
C58   C54    1.39007       .     S
C54   C63    1.49506       .     S
C63   C54    1.49506       .     S
C54   C64    1.39060   1_455     S
C64   C54    1.39060   1_655     S
C56   H57    0.93002       .     S
H57   C56    0.93002       .     S
C56   C60    1.39100       .     S
C60   C56    1.39100       .     S
C58   H59    0.92991       .     S
H59   C58    0.92991       .     S
C60   C68    1.38800       .     S
C68   C60    1.38800       .     S
C60   C70    1.49529       .     S
C70   C60    1.49529       .     S
C61   H62    0.93005       .     S
H62   C61    0.93005       .     S
C61   C64    1.37948       .     S
C64   C61    1.37948       .     S
C64   H65    0.92993       .     S
H65   C64    0.92993       .     S
C66   H67    0.93006       .     S
H67   C66    0.93006       .     S
C66   C68    1.37907       .     S
C68   C66    1.37907       .     S
C68   H69    0.92990       .     S
H69   C68    0.92990       .     S
N71   H72    0.88998       .     S
H72   N71    0.88998       .     S
N71   H73    0.89005       .     S
H73   N71    0.89005       .     S
N71   C74    1.47907       .     S
C74   N71    1.47907       .     S
N71   C78    1.47789       .     S
C78   N71    1.47789       .     S
C74   H75    0.95995       .     S
H75   C74    0.95995       .     S
C74   H76    0.95978       .     S
H76   C74    0.95978       .     S
C74   H77    0.95997       .     S
H77   C74    0.95997       .     S
C78   H79    0.95979       .     S
H79   C78    0.95979       .     S
C78   H80    0.96011       .     S
H80   C78    0.96011       .     S
C78   H81    0.96011       .     S
H81   C78    0.96011       .     S
O16   H1     1.87533       .     S
H1    O16    1.87533       .     S
O15   H72    1.88181       .     S
H72   O15    1.88181       .     S
H1    N0     0.88996       .     S
N0    H1     0.88996       .     S
H2    N0     0.89008       .     S
N0    H2     0.89008       .     S
C3    N0     1.49677       .     S
N0    C3     1.49677       .     S
C7    N0     1.45990       .     S
N0    C7     1.45990       .     S
H4    C3     0.95999       .     S
C3    H4     0.95999       .     S
H5    C3     0.96008       .     S
C3    H5     0.96008       .     S
H6    C3     0.96007       .     S
C3    H6     0.96007       .     S
H8    C7     0.95974       .     S
C7    H8     0.95974       .     S
H9    C7     0.95963       .     S
C7    H9     0.95963       .     S
H10   C7     0.96076       .     S
C7    H10    0.96076       .     S
C53   O11    1.27307       .     S
O11   C53    1.27307       .     S
C55   O12    1.27278       .     S
O12   C55    1.27278       .     S
H14   O13    0.81993       .     S
O13   H14    0.81993       .     S
C63   O13    1.31424       .     S
O13   C63    1.31424       .     S
C55   O15    1.24062       .     S
O15   C55    1.24062       .     S
C53   O16    1.24286       .     S
O16   C53    1.24286       .     S
C24   N17    1.33850       .     S
N17   C24    1.33850       .     S
C28   N17    1.33750       .     S
N17   C28    1.33750       .     S
H19   O18    0.81997       .     S
O18   H19    0.81997       .     S
C70   O18    1.31074       .     S
O18   C70    1.31074       .     S
C23   N20    1.33771       .     S
N20   C23    1.33771       .     S
C35   N20    1.33738       .     S
N20   C35    1.33738       .     S
C63   O21    1.21351       .     S
O21   C63    1.21351       .     S
C70   O22    1.21181       .     S
O22   C70    1.21181       .     S
C24   C23    1.41347       .     S
C23   C24    1.41347       .     S
C25   C23    1.48600       .     S
C23   C25    1.48600       .     S
C26   C24    1.48558       .     S
C24   C26    1.48558       .     S
C51   C25    1.39853       .     S
C25   C51    1.39853       .     S
C66   C25    1.38872       .     S
C25   C66    1.38872       .     S
C38   C26    1.39485       .     S
C26   C38    1.39485       .     S
C42   C26    1.39596       .     S
C26   C42    1.39596       .     S
C28   C27    1.48457       .     S
C27   C28    1.48457       .     S
C33   C27    1.39515       .     S
C27   C33    1.39515       .     S
C40   C27    1.39996       .     S
C27   C40    1.39996       .     S
C35   C28    1.41401       .     S
C28   C35    1.41401       .     S
H30   C29    0.92992       .     S
C29   H30    0.92992       .     S
C38   C29    1.38274       .     S
C29   C38    1.38274       .     S
C47   C29    1.39176       .     S
C29   C47    1.39176       .     S
H32   C31    0.93013       .     S
C31   H32    0.93013       .     S
C42   C31    1.38476       .     S
C31   C42    1.38476       .     S
C47   C31    1.39225       .     S
C31   C47    1.39225       .     S
H34   C33    0.93011       .     S
C33   H34    0.93011       .     S
C36   C33    1.38200   1_455     S
C33   C36    1.38200   1_655     S
C50   C35    1.48771       .     S
C35   C50    1.48771       .     S
H37   C36    0.92994       .     S
C36   H37    0.92994       .     S
C46   C36    1.39230       .     S
C36   C46    1.39230       .     S
H39   C38    0.92997       .     S
C38   H39    0.92997       .     S
H41   C40    0.93005       .     S
C40   H41    0.93005       .     S
C48   C40    1.38066       .     S
C40   C48    1.38066       .     S
H43   C42    0.92990       .     S
C42   H43    0.92990       .     S
H45   C44    0.93012       .     S
C44   H45    0.93012       .     S
C50   C44    1.39738   1_655     S
C44   C50    1.39738   1_455     S
C58   C44    1.37704       .     S
C44   C58    1.37704       .     S
C48   C46    1.39418   1_655     S
C46   C48    1.39418   1_455     S
C55   C46    1.50114       .     S
C46   C55    1.50114       .     S
C53   C47    1.50136       .     S
C47   C53    1.50136       .     S
H49   C48    0.92994       .     S
C48   H49    0.92994       .     S
C61   C50    1.39137       .     S
C50   C61    1.39137       .     S
H52   C51    0.93002       .     S
C51   H52    0.93002       .     S
C56   C51    1.37851       .     S
C51   C56    1.37851       .     S
C58   C54    1.39007       .     S
C54   C58    1.39007       .     S
C63   C54    1.49506       .     S
C54   C63    1.49506       .     S
C64   C54    1.39060   1_655     S
C54   C64    1.39060   1_455     S
H57   C56    0.93002       .     S
C56   H57    0.93002       .     S
C60   C56    1.39100       .     S
C56   C60    1.39100       .     S
H59   C58    0.92991       .     S
C58   H59    0.92991       .     S
C68   C60    1.38800       .     S
C60   C68    1.38800       .     S
C70   C60    1.49529       .     S
C60   C70    1.49529       .     S
H62   C61    0.93005       .     S
C61   H62    0.93005       .     S
C64   C61    1.37948       .     S
C61   C64    1.37948       .     S
H65   C64    0.92993       .     S
C64   H65    0.92993       .     S
H67   C66    0.93006       .     S
C66   H67    0.93006       .     S
C68   C66    1.37907       .     S
C66   C68    1.37907       .     S
H69   C68    0.92990       .     S
C68   H69    0.92990       .     S
H72   N71    0.88998       .     S
N71   H72    0.88998       .     S
H73   N71    0.89005       .     S
N71   H73    0.89005       .     S
C74   N71    1.47907       .     S
N71   C74    1.47907       .     S
C78   N71    1.47789       .     S
N71   C78    1.47789       .     S
H75   C74    0.95995       .     S
C74   H75    0.95995       .     S
H76   C74    0.95978       .     S
C74   H76    0.95978       .     S
H77   C74    0.95997       .     S
C74   H77    0.95997       .     S
H79   C78    0.95979       .     S
C78   H79    0.95979       .     S
H80   C78    0.96011       .     S
C78   H80    0.96011       .     S
H81   C78    0.96011       .     S
C78   H81    0.96011       .     S
