data_I
_chemical_name_common  '/data/user2/wty/HOF/MOFDiff/mofdiff/data/test/212-hcof6'
_cell_length_a 24.05990
_cell_length_b 24.05990
_cell_length_c 22.96740
_cell_angle_alpha 90.00000
_cell_angle_beta  90.00000
_cell_angle_gamma 120.00000
_space_group_name_H-M_alt      'P 1'


loop_
_space_group_symop_operation_xyz
  'x, y, z' 

loop_
_atom_site_label
_atom_site_fract_x
_atom_site_fract_y
_atom_site_fract_z
_atom_site_type_symbol
S0       0.742    0.988    0.721     S
S1       0.899    0.646    0.675     S
S2       0.021    0.681     0.57     S
S3       0.326    0.135    0.548     S
S4       0.296    0.002    0.606     S
S5       0.887    0.115    0.643     S
C6      0.3699    0.562   0.5276     C
N7      0.4035   0.6262   0.5199     N
C8       0.369   0.6554    0.524     C
N9      0.3062   0.6256   0.5369     N
C10      0.278   0.5619   0.5389     C
N11     0.3071   0.5278   0.5315     N
N12     0.4008   0.7211   0.5239     N
N13     0.4621   0.8431   0.5656     N
C14      0.496   0.9092    0.569     C
N15      0.461   0.9384   0.5727     N
C16      0.501   0.0004    0.581     C
N17     0.5655   0.0364    0.582     N
H18    0.58763  0.07841  0.58604     H
C19       0.59    0.999    0.575     C
N20     0.5584   0.9371   0.5779     N
N21      0.472   0.0363   0.5856     N
H22    0.49443  0.07787  0.59237     H
N23     0.6552    0.028    0.583     N
H24    0.67806  0.06759  0.59646     H
N25     0.4037   0.5307   0.5334     N
N26     0.4685   0.4953   0.6083     N
C27     0.5069   0.4681    0.612     C
N28     0.5705   0.5084    0.603     N
C29      0.603    0.479    0.605     C
N30     0.5837   0.4174    0.615     N
H31    0.60878  0.40091   0.6202     H
C32      0.521    0.385    0.617     C
N33     0.4795   0.4057   0.6136     N
N34     0.6683    0.516    0.602     N
H35    0.68513  0.49464  0.58457     H
N36     0.4947    0.321    0.613     N
H37    0.52018  0.30608  0.60369     H
N38     0.2123   0.5265   0.5383     N
N39     0.0945   0.4561   0.5869     N
C40     0.0296   0.4192    0.595     C
N41     0.0036   0.3548    0.592     N
C42      0.941    0.326    0.599     C
N43     0.8999    0.347    0.591     N
H44     0.8579    0.323  0.58832     H
C45     0.9326     0.41    0.586     C
N46     0.9952    0.447   0.5885     N
N47     0.9121   0.2602    0.598     N
H48    0.89619  0.23827  0.62993     H
N49     0.8994   0.4404    0.598     N
H50    0.85782  0.41347  0.59656     H
C51     0.3694   0.7576   0.5201     C
H52    0.32246  0.72917  0.52413     H
H53    0.37816  0.77935  0.48184     H
C54     0.3947   0.8073    0.569     C
H55    0.37673  0.83624  0.56514     H
H56    0.38149  0.78554  0.60725     H
C57     0.4948   0.8078    0.566     C
H58    0.48836  0.78566  0.60354     H
H59    0.54138  0.83731  0.56025     H
C60     0.4691    0.759   0.5169     C
H61     0.4796  0.78111  0.47873     H
H62    0.48863  0.73135  0.51864     H
C63      0.405    0.004    0.578     C
H64     0.3861  0.01542  0.61128     H
H65    0.38872  0.95695  0.58128     H
C66       0.38    0.017    0.521     C
H67    0.37521  0.98418  0.49214     H
H68    0.41222  0.05933  0.50645     H
C69      0.315    0.014    0.529     C
H70    0.28156  0.97854  0.50586     H
H71    0.31867  0.05489  0.51586     H
C72      0.684     0.99    0.567     C
H73    0.70058  0.00296  0.52739     H
H74    0.64848  0.94521  0.56552     H
C75      0.736    0.992    0.603     C
H76     0.7601   0.0355  0.62026     H
H77     0.7649  0.98697  0.57647     H
C78      0.721    0.945    0.653     C
H79    0.74628  0.92258  0.64821     H
H80    0.67504  0.91183  0.65327     H
C81      0.828    0.019    0.722     C
H82    0.84919  0.05922  0.74477     H
H83    0.83698  0.98732  0.74144     H
C84     0.4723   0.5657   0.5336     C
H85    0.48803  0.61126   0.5237     H
H86    0.48898  0.54766  0.50426     H
C87     0.4956   0.5611   0.5935     C
H88    0.54299  0.58231  0.59372     H
H89    0.48241   0.5829  0.62232     H
C90     0.4007   0.4571   0.6053     C
H91    0.38137  0.46959  0.63718     H
H92     0.3879  0.41148  0.61085     H
C93     0.3755    0.465   0.5478     C
H94    0.38527  0.44236  0.51707     H
H95    0.32827  0.44563  0.55007     H
C96      0.718     0.58    0.618     C
H97    0.69781  0.60107   0.6398     H
H98    0.73743  0.60551  0.58221     H
C99       0.77    0.578    0.656     C
H100   0.74999  0.55276  0.69143     H
H101   0.78895  0.55603  0.63389     H
C102     0.825    0.645    0.674     C
H103   0.81556  0.65632  0.71285     H
H104   0.82718  0.67773  0.64575     H
C105     0.897    0.611    0.605     C
H106   0.91364  0.58046  0.60879     H
H107   0.85264  0.58675  0.59036     H
C108      0.94    0.665    0.563     C
H109   0.93779  0.70451  0.57251     H
H110   0.92433  0.65275  0.52235     H
C111     0.429    0.276    0.624     C
H112   0.41647  0.29118  0.65882     H
H113   0.42723  0.23518  0.63514     H
C114     0.379     0.26    0.578     C
H115   0.39775  0.26029   0.5396     H
H116   0.36825  0.29505  0.57741     H
C117     0.317    0.196    0.586     C
H118   0.27992  0.19811  0.57001     H
H119   0.30889  0.18513   0.6281     H
C120     0.246    0.068    0.554     C
H121   0.21433  0.08297  0.55386     H
H122   0.23651   0.0389  0.51998     H
C123     0.241    0.032    0.611     C
H124   0.19651  0.99618  0.61629     H
H125   0.25224  0.06159  0.64433     H
C126    0.1802    0.458    0.534     C
H127   0.21193  0.44318  0.53319     H
H128   0.15512  0.44385  0.49698     H
C129    0.1356   0.4301    0.586     C
H130   0.11016  0.38277  0.58333     H
H131   0.16109  0.44146  0.62264     H
C132    0.1248    0.524     0.59     C
H133   0.14668  0.53914  0.62751     H
H134   0.09197  0.53717  0.58629     H
C135    0.1729   0.5542   0.5411     C
H136   0.15022  0.54773  0.50356     H
H137   0.19966  0.60092  0.54797     H
C138     0.907    0.226    0.545     C
H139   0.92721  0.25799  0.51338     H
H140   0.86062  0.19979  0.53525     H
C141     0.935    0.183    0.544     C
H142   0.97584  0.20474   0.5652     H
H143   0.94559  0.17985  0.50249     H
C144     0.898    0.115    0.567     C
H145   0.92128  0.09246  0.55722     H
H146   0.85545  0.09257  0.54721     H
C147     0.853    0.031     0.66     C
H148    0.8171  0.00469  0.63229     H
H149   0.88571  0.01781  0.65505     H
C150     0.912    0.505    0.613     C
H151   0.94459  0.52163  0.64419     H
H152   0.87235   0.5013  0.62801     H
C153     0.936    0.553    0.563     C
H154    0.9129  0.57667  0.56344     H
H155   0.92553  0.52856  0.52541     H
C156     0.009    0.602    0.562     C
H157   0.02856  0.59815  0.52573     H
H158   0.03005  0.59259  0.59526     H
S159    0.5388   0.2069   0.6337     S
O160     0.483     0.18    0.661     O
O161     0.543     0.16    0.609     O
O162     0.584    0.234    0.674     O
O163     0.543    0.251    0.598     O
S164     0.732    0.202   0.6018     S
O165     0.671    0.169    0.571     O
O166     0.772    0.171    0.608     O
O167     0.775    0.265    0.577     O
O168     0.723    0.222    0.659     O
S169    0.7321   0.3995   0.6518     S
O170    0.7735   0.3763   0.6294     O
O171    0.6691   0.3764   0.6221     O
O172    0.7724   0.4664   0.6273     O
O173    0.7393   0.4159   0.7145     O
loop_
_geom_bond_atom_site_label_1
_geom_bond_atom_site_label_2
_geom_bond_distance
_geom_bond_site_symmetry_2
_ccdc_geom_bond_type
H18   O165   2.12638       .     S
O165  H18    2.12638       .     S
H22   O161   1.76268       .     S
O161  H22    1.76268       .     S
H24   O165   2.59585       .     S
O165  H24    2.59585       .     S
H24   O166   2.39700       .     S
O166  H24    2.39700       .     S
H31   O171   1.81982       .     S
O171  H31    1.81982       .     S
H37   O163   1.67402       .     S
O163  H37    1.67402       .     S
H44   O167   1.79161       .     S
O167  H44    1.79161       .     S
H48   S5     2.87742       .     S
S5    H48    2.87742       .     S
H50   O170   1.91575       .     S
O170  H50    1.91575       .     S
S0    C78    1.80058       .     S
C78   S0     1.80058       .     S
S0    C81    1.81519   1_565     S
C81   S0     1.81519   1_545     S
S1    C102   1.76868       .     S
C102  S1     1.76868       .     S
S1    C105   1.80435       .     S
C105  S1     1.80435       .     S
S2    C108   1.79495   1_455     S
C108  S2     1.79495   1_655     S
S2    C156   1.78357       .     S
C156  S2     1.78357       .     S
S3    C117   1.81119       .     S
C117  S3     1.81119       .     S
S3    C120   1.79433       .     S
C120  S3     1.79433       .     S
S4    C69    1.81326       .     S
C69   S4     1.81326       .     S
S4    C123   1.80012       .     S
C123  S4     1.80012       .     S
S5    C144   1.76547       .     S
C144  S5     1.76547       .     S
S5    C147   1.80359       .     S
C147  S5     1.80359       .     S
C6    N7     1.34982       .     S
N7    C6     1.34982       .     S
C6    N11    1.31332       .     S
N11   C6     1.31332       .     S
C6    N25    1.36331       .     S
N25   C6     1.36331       .     S
N7    C8     1.33215       .     S
C8    N7     1.33215       .     S
C8    N9     1.34221       .     S
N9    C8     1.34221       .     S
C8    N12    1.36919       .     S
N12   C8     1.36919       .     S
N9    C10    1.33098       .     S
C10   N9     1.33098       .     S
C10   N11    1.32915       .     S
N11   C10    1.32915       .     S
C10   N38    1.37040       .     S
N38   C10    1.37040       .     S
N12   C51    1.41881       .     S
C51   N12    1.41881       .     S
N12   C60    1.43502       .     S
C60   N12    1.43502       .     S
N13   C14    1.37965       .     S
C14   N13    1.37965       .     S
N13   C54    1.40746       .     S
C54   N13    1.40746       .     S
N13   C57    1.41726       .     S
C57   N13    1.41726       .     S
C14   N15    1.34221       .     S
N15   C14    1.34221       .     S
C14   N20    1.31856       .     S
N20   C14    1.31856       .     S
N15   C16    1.32368   1_565     S
C16   N15    1.32368   1_545     S
C16   N17    1.34718       .     S
N17   C16    1.34718       .     S
C16   N21    1.35895       .     S
N21   C16    1.35895       .     S
N17   H18    0.88066       .     S
H18   N17    0.88066       .     S
N17   C19    1.30899   1_545     S
C19   N17    1.30899   1_565     S
C19   N20    1.29159       .     S
N20   C19    1.29159       .     S
C19   N23    1.37364   1_565     S
N23   C19    1.37364   1_545     S
N21   H22    0.88091       .     S
H22   N21    0.88091       .     S
N21   C63    1.40721       .     S
C63   N21    1.40721       .     S
N23   H24    0.88402       .     S
H24   N23    0.88402       .     S
N23   C72    1.44382   1_545     S
C72   N23    1.44382   1_565     S
N25   C84    1.42949       .     S
C84   N25    1.42949       .     S
N25   C93    1.41278       .     S
C93   N25    1.41278       .     S
N26   C27    1.37612       .     S
C27   N26    1.37612       .     S
N26   C87    1.41943       .     S
C87   N26    1.41943       .     S
N26   C90    1.41817       .     S
C90   N26    1.41817       .     S
C27   N28    1.35673       .     S
N28   C27    1.35673       .     S
C27   N33    1.30393       .     S
N33   C27    1.30393       .     S
N28   C29    1.29113       .     S
C29   N28    1.29113       .     S
C29   N30    1.33295       .     S
N30   C29    1.33295       .     S
C29   N34    1.36638       .     S
N34   C29    1.36638       .     S
N30   H31    0.88045       .     S
H31   N30    0.88045       .     S
N30   C32    1.30750       .     S
C32   N30    1.30750       .     S
C32   N33    1.32227       .     S
N33   C32    1.32227       .     S
C32   N36    1.34371       .     S
N36   C32    1.34371       .     S
N34   H35    0.89243       .     S
H35   N34    0.89243       .     S
N34   C96    1.44731       .     S
C96   N34    1.44731       .     S
N36   H37    0.87777       .     S
H37   N36    0.87777       .     S
N36   C111   1.42244       .     S
C111  N36    1.42244       .     S
N38   C126   1.43165       .     S
C126  N38    1.43165       .     S
N38   C135   1.40667       .     S
C135  N38    1.40667       .     S
N39   C40    1.36922       .     S
C40   N39    1.36922       .     S
N39   C129   1.41003       .     S
C129  N39    1.41003       .     S
N39   C132   1.41931       .     S
C132  N39    1.41931       .     S
C40   N41    1.35189       .     S
N41   C40    1.35189       .     S
C40   N46    1.30701   1_455     S
N46   C40    1.30701   1_655     S
N41   C42    1.31561   1_455     S
C42   N41    1.31561   1_655     S
C42   N43    1.32910       .     S
N43   C42    1.32910       .     S
C42   N47    1.37461       .     S
N47   C42    1.37461       .     S
N43   H44    0.88026       .     S
H44   N43    0.88026       .     S
N43   C45    1.31803       .     S
C45   N43    1.31803       .     S
C45   N46    1.31281       .     S
N46   C45    1.31281       .     S
C45   N49    1.35398       .     S
N49   C45    1.35398       .     S
N47   H48    0.87221       .     S
H48   N47    0.87221       .     S
N47   C138   1.43976       .     S
C138  N47    1.43976       .     S
N49   H50    0.87951       .     S
H50   N49    0.87951       .     S
N49   C150   1.46805       .     S
C150  N49    1.46805       .     S
C51   H52    0.98966       .     S
H52   C51    0.98966       .     S
C51   H53    0.99002       .     S
H53   C51    0.99002       .     S
C51   C54    1.52771       .     S
C54   C51    1.52771       .     S
C54   H55    0.99029       .     S
H55   C54    0.99029       .     S
C54   H56    0.99019       .     S
H56   C54    0.99019       .     S
C57   H58    0.98418       .     S
H58   C57    0.98418       .     S
C57   H59    0.99087       .     S
H59   C57    0.99087       .     S
C57   C60    1.51875       .     S
C60   C57    1.51875       .     S
C60   H61    0.99043       .     S
H61   C60    0.99043       .     S
C60   H62    0.98871       .     S
H62   C60    0.98871       .     S
C63   H64    0.99572       .     S
H64   C63    0.99572       .     S
C63   H65    0.99858   1_545     S
H65   C63    0.99858   1_565     S
C63   C66    1.53676       .     S
C66   C63    1.53676       .     S
C66   H67    0.99256   1_545     S
H67   C66    0.99256   1_565     S
C66   H68    0.97998       .     S
H68   C66    0.97998       .     S
C66   C69    1.54008       .     S
C69   C66    1.54008       .     S
C69   H70    0.98552   1_545     S
H70   C69    0.98552   1_565     S
C69   H71    0.98989       .     S
H71   C69    0.98989       .     S
C72   H73    0.97959   1_565     S
H73   C72    0.97959   1_545     S
C72   H74    0.98583       .     S
H74   C72    0.98583       .     S
C72   C75    1.48022       .     S
C75   C72    1.48022       .     S
C75   H76    0.99090   1_565     S
H76   C75    0.99090   1_545     S
C75   H77    0.97650       .     S
H77   C75    0.97650       .     S
C75   C78    1.52304       .     S
C78   C75    1.52304       .     S
C78   H79    1.00056       .     S
H79   C78    1.00056       .     S
C78   H80    0.98855       .     S
H80   C78    0.98855       .     S
C81   H82    0.98817       .     S
H82   C81    0.98817       .     S
C81   H83    0.99584   1_545     S
H83   C81    0.99583   1_565     S
C81   C147   1.51631       .     S
C147  C81    1.51631       .     S
C84   H85    0.99079       .     S
H85   C84    0.99079       .     S
C84   H86    0.98880       .     S
H86   C84    0.98880       .     S
C84   C87    1.51038       .     S
C87   C84    1.51038       .     S
C87   H88    0.98926       .     S
H88   C87    0.98926       .     S
C87   H89    0.99015       .     S
H89   C87    0.99015       .     S
C90   H91    0.99120       .     S
H91   C90    0.99120       .     S
C90   H92    0.98885       .     S
H92   C90    0.98885       .     S
C90   C93    1.50434       .     S
C93   C90    1.50434       .     S
C93   H94    0.98902       .     S
H94   C93    0.98902       .     S
C93   H95    0.99077       .     S
H95   C93    0.99077       .     S
C96   H97    0.99494       .     S
H97   C96    0.99494       .     S
C96   H98    0.99197       .     S
H98   C96    0.99197       .     S
C96   C99    1.54581       .     S
C99   C96    1.54581       .     S
C99   H100   0.98507       .     S
H100  C99    0.98507       .     S
C99   H101   0.99306       .     S
H101  C99    0.99306       .     S
C99   C102   1.54513       .     S
C102  C99    1.54513       .     S
C102  H103   0.99186       .     S
H103  C102   0.99186       .     S
C102  H104   1.00128       .     S
H104  C102   1.00128       .     S
C105  H106   1.00098       .     S
H106  C105   1.00098       .     S
C105  H107   0.98483       .     S
H107  C105   0.98483       .     S
C105  C108   1.53125       .     S
C108  C105   1.53125       .     S
C108  H109   1.00236       .     S
H109  C108   1.00236       .     S
C108  H110   0.99476       .     S
H110  C108   0.99476       .     S
C111  H112   0.98689       .     S
H112  C111   0.98689       .     S
C111  H113   0.99500       .     S
H113  C111   0.99500       .     S
C111  C114   1.49949       .     S
C114  C111   1.49949       .     S
C114  H115   0.98906       .     S
H115  C114   0.98906       .     S
C114  H116   0.99817       .     S
H116  C114   0.99817       .     S
C114  C117   1.52744       .     S
C117  C114   1.52744       .     S
C117  H118   0.98927       .     S
H118  C117   0.98927       .     S
C117  H119   0.99518       .     S
H119  C117   0.99518       .     S
C120  H121   0.99237       .     S
H121  C120   0.99237       .     S
C120  H122   0.99648       .     S
H122  C120   0.99648       .     S
C120  C123   1.54089       .     S
C123  C120   1.54089       .     S
C123  H124   0.99035   1_545     S
H124  C123   0.99035   1_565     S
C123  H125   0.98663       .     S
H125  C123   0.98663       .     S
C126  H127   0.99122       .     S
H127  C126   0.99122       .     S
C126  H128   0.99876       .     S
H128  C126   0.99876       .     S
C126  C129   1.51925       .     S
C129  C126   1.51925       .     S
C129  H130   0.98902       .     S
H130  C129   0.98902       .     S
C129  H131   0.99567       .     S
H131  C129   0.99567       .     S
C132  H133   0.97993       .     S
H133  C132   0.97993       .     S
C132  H134   0.99090       .     S
H134  C132   0.99090       .     S
C132  C135   1.51253       .     S
C135  C132   1.51253       .     S
C135  H136   0.99017       .     S
H136  C135   0.99017       .     S
C135  H137   0.98957       .     S
H137  C135   0.98957       .     S
C138  H139   0.99096       .     S
H139  C138   0.99096       .     S
C138  H140   0.99466       .     S
H140  C138   0.99466       .     S
C138  C141   1.49053       .     S
C141  C138   1.49053       .     S
C141  H142   0.98093       .     S
H142  C141   0.98093       .     S
C141  H143   0.99945       .     S
H143  C141   0.99945       .     S
C141  C144   1.51387       .     S
C144  C141   1.51387       .     S
C144  H145   0.98083       .     S
H145  C144   0.98083       .     S
C144  H146   0.99670       .     S
H146  C144   0.99670       .     S
C147  H148   1.00252       .     S
H148  C147   1.00252       .     S
C147  H149   0.99134       .     S
H149  C147   0.99134       .     S
C150  H151   0.98709       .     S
H151  C150   0.98709       .     S
C150  H152   0.97566       .     S
H152  C150   0.97566       .     S
C150  C153   1.52284       .     S
C153  C150   1.52284       .     S
C153  H154   0.97460       .     S
H154  C153   0.97460       .     S
C153  H155   1.00323       .     S
H155  C153   1.00323       .     S
C153  C156   1.55068   1_655     S
C156  C153   1.55068   1_455     S
C156  H157   0.98366       .     S
H157  C156   0.98366       .     S
C156  H158   1.00298       .     S
H158  C156   1.00298       .     S
S159  O160   1.32119       .     S
O160  S159   1.32119       .     S
S159  O161   1.31125       .     S
O161  S159   1.31125       .     S
S159  O162   1.32493       .     S
O162  S159   1.32493       .     S
S159  O163   1.30426       .     S
O163  S159   1.30426       .     S
S164  O165   1.45586       .     S
O165  S164   1.45586       .     S
S164  O166   1.49017       .     S
O166  S164   1.49017       .     S
S164  O167   1.45745       .     S
O167  S164   1.45745       .     S
S164  O168   1.45208       .     S
O168  S164   1.45208       .     S
S169  O170   1.45754       .     S
O170  S169   1.45754       .     S
S169  O171   1.49309       .     S
O171  S169   1.49309       .     S
S169  O172   1.51226       .     S
O172  S169   1.51226       .     S
S169  O173   1.48024       .     S
O173  S169   1.48024       .     S
O165  H18    2.12638       .     S
H18   O165   2.12638       .     S
O161  H22    1.76268       .     S
H22   O161   1.76268       .     S
O165  H24    2.59585       .     S
H24   O165   2.59585       .     S
O166  H24    2.39700       .     S
H24   O166   2.39700       .     S
O171  H31    1.81982       .     S
H31   O171   1.81982       .     S
O163  H37    1.67402       .     S
H37   O163   1.67402       .     S
O167  H44    1.79161       .     S
H44   O167   1.79161       .     S
S5    H48    2.87742       .     S
H48   S5     2.87742       .     S
O170  H50    1.91575       .     S
H50   O170   1.91575       .     S
C78   S0     1.80058       .     S
S0    C78    1.80058       .     S
C81   S0     1.81519   1_545     S
S0    C81    1.81519   1_565     S
C102  S1     1.76868       .     S
S1    C102   1.76868       .     S
C105  S1     1.80435       .     S
S1    C105   1.80435       .     S
C108  S2     1.79495   1_655     S
S2    C108   1.79495   1_455     S
C156  S2     1.78357       .     S
S2    C156   1.78357       .     S
C117  S3     1.81119       .     S
S3    C117   1.81119       .     S
C120  S3     1.79433       .     S
S3    C120   1.79433       .     S
C69   S4     1.81326       .     S
S4    C69    1.81326       .     S
C123  S4     1.80012       .     S
S4    C123   1.80012       .     S
C144  S5     1.76547       .     S
S5    C144   1.76547       .     S
C147  S5     1.80359       .     S
S5    C147   1.80359       .     S
N7    C6     1.34982       .     S
C6    N7     1.34982       .     S
N11   C6     1.31332       .     S
C6    N11    1.31332       .     S
N25   C6     1.36331       .     S
C6    N25    1.36331       .     S
C8    N7     1.33215       .     S
N7    C8     1.33215       .     S
N9    C8     1.34221       .     S
C8    N9     1.34221       .     S
N12   C8     1.36919       .     S
C8    N12    1.36919       .     S
C10   N9     1.33098       .     S
N9    C10    1.33098       .     S
N11   C10    1.32915       .     S
C10   N11    1.32915       .     S
N38   C10    1.37040       .     S
C10   N38    1.37040       .     S
C51   N12    1.41881       .     S
N12   C51    1.41881       .     S
C60   N12    1.43502       .     S
N12   C60    1.43502       .     S
C14   N13    1.37965       .     S
N13   C14    1.37965       .     S
C54   N13    1.40746       .     S
N13   C54    1.40746       .     S
C57   N13    1.41726       .     S
N13   C57    1.41726       .     S
N15   C14    1.34221       .     S
C14   N15    1.34221       .     S
N20   C14    1.31856       .     S
C14   N20    1.31856       .     S
C16   N15    1.32368   1_545     S
N15   C16    1.32368   1_565     S
N17   C16    1.34718       .     S
C16   N17    1.34718       .     S
N21   C16    1.35895       .     S
C16   N21    1.35895       .     S
H18   N17    0.88066       .     S
N17   H18    0.88066       .     S
C19   N17    1.30899   1_565     S
N17   C19    1.30899   1_545     S
N20   C19    1.29159       .     S
C19   N20    1.29159       .     S
N23   C19    1.37364   1_545     S
C19   N23    1.37364   1_565     S
H22   N21    0.88091       .     S
N21   H22    0.88091       .     S
C63   N21    1.40721       .     S
N21   C63    1.40721       .     S
H24   N23    0.88402       .     S
N23   H24    0.88402       .     S
C72   N23    1.44382   1_565     S
N23   C72    1.44382   1_545     S
C84   N25    1.42949       .     S
N25   C84    1.42949       .     S
C93   N25    1.41278       .     S
N25   C93    1.41278       .     S
C27   N26    1.37612       .     S
N26   C27    1.37612       .     S
C87   N26    1.41943       .     S
N26   C87    1.41943       .     S
C90   N26    1.41817       .     S
N26   C90    1.41817       .     S
N28   C27    1.35673       .     S
C27   N28    1.35673       .     S
N33   C27    1.30393       .     S
C27   N33    1.30393       .     S
C29   N28    1.29113       .     S
N28   C29    1.29113       .     S
N30   C29    1.33295       .     S
C29   N30    1.33295       .     S
N34   C29    1.36638       .     S
C29   N34    1.36638       .     S
H31   N30    0.88045       .     S
N30   H31    0.88045       .     S
C32   N30    1.30750       .     S
N30   C32    1.30750       .     S
N33   C32    1.32227       .     S
C32   N33    1.32227       .     S
N36   C32    1.34371       .     S
C32   N36    1.34371       .     S
H35   N34    0.89243       .     S
N34   H35    0.89243       .     S
C96   N34    1.44731       .     S
N34   C96    1.44731       .     S
H37   N36    0.87777       .     S
N36   H37    0.87777       .     S
C111  N36    1.42244       .     S
N36   C111   1.42244       .     S
C126  N38    1.43165       .     S
N38   C126   1.43165       .     S
C135  N38    1.40667       .     S
N38   C135   1.40667       .     S
C40   N39    1.36922       .     S
N39   C40    1.36922       .     S
C129  N39    1.41003       .     S
N39   C129   1.41003       .     S
C132  N39    1.41931       .     S
N39   C132   1.41931       .     S
N41   C40    1.35189       .     S
C40   N41    1.35189       .     S
N46   C40    1.30701   1_655     S
C40   N46    1.30701   1_455     S
C42   N41    1.31561   1_655     S
N41   C42    1.31561   1_455     S
N43   C42    1.32910       .     S
C42   N43    1.32910       .     S
N47   C42    1.37461       .     S
C42   N47    1.37461       .     S
H44   N43    0.88026       .     S
N43   H44    0.88026       .     S
C45   N43    1.31803       .     S
N43   C45    1.31803       .     S
N46   C45    1.31281       .     S
C45   N46    1.31281       .     S
N49   C45    1.35398       .     S
C45   N49    1.35398       .     S
H48   N47    0.87221       .     S
N47   H48    0.87221       .     S
C138  N47    1.43976       .     S
N47   C138   1.43976       .     S
H50   N49    0.87951       .     S
N49   H50    0.87951       .     S
C150  N49    1.46805       .     S
N49   C150   1.46805       .     S
H52   C51    0.98966       .     S
C51   H52    0.98966       .     S
H53   C51    0.99002       .     S
C51   H53    0.99002       .     S
C54   C51    1.52771       .     S
C51   C54    1.52771       .     S
H55   C54    0.99029       .     S
C54   H55    0.99029       .     S
H56   C54    0.99019       .     S
C54   H56    0.99019       .     S
H58   C57    0.98418       .     S
C57   H58    0.98418       .     S
H59   C57    0.99087       .     S
C57   H59    0.99087       .     S
C60   C57    1.51875       .     S
C57   C60    1.51875       .     S
H61   C60    0.99043       .     S
C60   H61    0.99043       .     S
H62   C60    0.98871       .     S
C60   H62    0.98871       .     S
H64   C63    0.99572       .     S
C63   H64    0.99572       .     S
H65   C63    0.99858   1_565     S
C63   H65    0.99858   1_545     S
C66   C63    1.53676       .     S
C63   C66    1.53676       .     S
H67   C66    0.99256   1_565     S
C66   H67    0.99256   1_545     S
H68   C66    0.97998       .     S
C66   H68    0.97998       .     S
C69   C66    1.54008       .     S
C66   C69    1.54008       .     S
H70   C69    0.98552   1_565     S
C69   H70    0.98552   1_545     S
H71   C69    0.98989       .     S
C69   H71    0.98989       .     S
H73   C72    0.97959   1_545     S
C72   H73    0.97959   1_565     S
H74   C72    0.98583       .     S
C72   H74    0.98583       .     S
C75   C72    1.48022       .     S
C72   C75    1.48022       .     S
H76   C75    0.99090   1_545     S
C75   H76    0.99090   1_565     S
H77   C75    0.97650       .     S
C75   H77    0.97650       .     S
C78   C75    1.52304       .     S
C75   C78    1.52304       .     S
H79   C78    1.00056       .     S
C78   H79    1.00056       .     S
H80   C78    0.98855       .     S
C78   H80    0.98855       .     S
H82   C81    0.98817       .     S
C81   H82    0.98817       .     S
H83   C81    0.99583   1_565     S
C81   H83    0.99584   1_545     S
C147  C81    1.51631       .     S
C81   C147   1.51631       .     S
H85   C84    0.99079       .     S
C84   H85    0.99079       .     S
H86   C84    0.98880       .     S
C84   H86    0.98880       .     S
C87   C84    1.51038       .     S
C84   C87    1.51038       .     S
H88   C87    0.98926       .     S
C87   H88    0.98926       .     S
H89   C87    0.99015       .     S
C87   H89    0.99015       .     S
H91   C90    0.99120       .     S
C90   H91    0.99120       .     S
H92   C90    0.98885       .     S
C90   H92    0.98885       .     S
C93   C90    1.50434       .     S
C90   C93    1.50434       .     S
H94   C93    0.98902       .     S
C93   H94    0.98902       .     S
H95   C93    0.99077       .     S
C93   H95    0.99077       .     S
H97   C96    0.99494       .     S
C96   H97    0.99494       .     S
H98   C96    0.99197       .     S
C96   H98    0.99197       .     S
C99   C96    1.54581       .     S
C96   C99    1.54581       .     S
H100  C99    0.98507       .     S
C99   H100   0.98507       .     S
H101  C99    0.99306       .     S
C99   H101   0.99306       .     S
C102  C99    1.54513       .     S
C99   C102   1.54513       .     S
H103  C102   0.99186       .     S
C102  H103   0.99186       .     S
H104  C102   1.00128       .     S
C102  H104   1.00128       .     S
H106  C105   1.00098       .     S
C105  H106   1.00098       .     S
H107  C105   0.98483       .     S
C105  H107   0.98483       .     S
C108  C105   1.53125       .     S
C105  C108   1.53125       .     S
H109  C108   1.00236       .     S
C108  H109   1.00236       .     S
H110  C108   0.99476       .     S
C108  H110   0.99476       .     S
H112  C111   0.98689       .     S
C111  H112   0.98689       .     S
H113  C111   0.99500       .     S
C111  H113   0.99500       .     S
C114  C111   1.49949       .     S
C111  C114   1.49949       .     S
H115  C114   0.98906       .     S
C114  H115   0.98906       .     S
H116  C114   0.99817       .     S
C114  H116   0.99817       .     S
C117  C114   1.52744       .     S
C114  C117   1.52744       .     S
H118  C117   0.98927       .     S
C117  H118   0.98927       .     S
H119  C117   0.99518       .     S
C117  H119   0.99518       .     S
H121  C120   0.99237       .     S
C120  H121   0.99237       .     S
H122  C120   0.99648       .     S
C120  H122   0.99648       .     S
C123  C120   1.54089       .     S
C120  C123   1.54089       .     S
H124  C123   0.99035   1_565     S
C123  H124   0.99035   1_545     S
H125  C123   0.98663       .     S
C123  H125   0.98663       .     S
H127  C126   0.99122       .     S
C126  H127   0.99122       .     S
H128  C126   0.99876       .     S
C126  H128   0.99876       .     S
C129  C126   1.51925       .     S
C126  C129   1.51925       .     S
H130  C129   0.98902       .     S
C129  H130   0.98902       .     S
H131  C129   0.99567       .     S
C129  H131   0.99567       .     S
H133  C132   0.97993       .     S
C132  H133   0.97993       .     S
H134  C132   0.99090       .     S
C132  H134   0.99090       .     S
C135  C132   1.51253       .     S
C132  C135   1.51253       .     S
H136  C135   0.99017       .     S
C135  H136   0.99017       .     S
H137  C135   0.98957       .     S
C135  H137   0.98957       .     S
H139  C138   0.99096       .     S
C138  H139   0.99096       .     S
H140  C138   0.99466       .     S
C138  H140   0.99466       .     S
C141  C138   1.49053       .     S
C138  C141   1.49053       .     S
H142  C141   0.98093       .     S
C141  H142   0.98093       .     S
H143  C141   0.99945       .     S
C141  H143   0.99945       .     S
C144  C141   1.51387       .     S
C141  C144   1.51387       .     S
H145  C144   0.98083       .     S
C144  H145   0.98083       .     S
H146  C144   0.99670       .     S
C144  H146   0.99670       .     S
H148  C147   1.00252       .     S
C147  H148   1.00252       .     S
H149  C147   0.99134       .     S
C147  H149   0.99134       .     S
H151  C150   0.98709       .     S
C150  H151   0.98709       .     S
H152  C150   0.97566       .     S
C150  H152   0.97566       .     S
C153  C150   1.52284       .     S
C150  C153   1.52284       .     S
H154  C153   0.97460       .     S
C153  H154   0.97460       .     S
H155  C153   1.00323       .     S
C153  H155   1.00323       .     S
C156  C153   1.55068   1_455     S
C153  C156   1.55068   1_655     S
H157  C156   0.98366       .     S
C156  H157   0.98366       .     S
H158  C156   1.00298       .     S
C156  H158   1.00298       .     S
O160  S159   1.32119       .     S
S159  O160   1.32119       .     S
O161  S159   1.31125       .     S
S159  O161   1.31125       .     S
O162  S159   1.32493       .     S
S159  O162   1.32493       .     S
O163  S159   1.30426       .     S
S159  O163   1.30426       .     S
O165  S164   1.45586       .     S
S164  O165   1.45586       .     S
O166  S164   1.49017       .     S
S164  O166   1.49017       .     S
O167  S164   1.45745       .     S
S164  O167   1.45745       .     S
O168  S164   1.45208       .     S
S164  O168   1.45208       .     S
O170  S169   1.45754       .     S
S169  O170   1.45754       .     S
O171  S169   1.49309       .     S
S169  O171   1.49309       .     S
O172  S169   1.51226       .     S
S169  O172   1.51226       .     S
O173  S169   1.48024       .     S
S169  O173   1.48024       .     S
