data_I
_chemical_name_common  '/data/user2/wty/HOF/MOFDiff/mofdiff/data/test/218-hof-tcpb-298'
_cell_length_a  6.25500
_cell_length_b 11.38600
_cell_length_c 16.79400
_cell_angle_alpha 99.97000
_cell_angle_beta  92.32000
_cell_angle_gamma 102.33000
_space_group_name_H-M_alt      'P 1'


loop_
_space_group_symop_operation_xyz
  'x, y, z' 

loop_
_atom_site_label
_atom_site_fract_x
_atom_site_fract_y
_atom_site_fract_z
_atom_site_type_symbol
O0       0.601    0.641  0.24204     O
N1      0.3013   0.6122  0.15284     N
C2      0.4125    0.653   0.2247     C
H3     0.34415  0.69382  0.26543     H
C4      0.0819   0.6311   0.1376     C
H5     0.03197  0.66682  0.18741     H
H6     0.08496  0.68493   0.0993     H
H7     0.98391  0.55391  0.11586     H
C8      0.3975   0.5467   0.0866     C
H9     0.30167  0.46825  0.06656     H
H10    0.41713  0.59295  0.04373     H
H11    0.53723  0.53568   0.1058     H
O12     0.3159   0.9051  0.06445     O
N13     0.6354    0.947   0.1415     N
C14     0.5102   0.8996   0.0733     C
H15    0.57157  0.86012  0.02988     H
C16     0.5453   0.0092   0.2109     C
H17    0.63558  0.08984  0.22877     H
H18    0.39892  0.01509  0.19554     H
H19     0.5418  0.96375  0.25407     H
C20     0.8631   0.9383   0.1494     C
H21    0.87757  0.88037  0.18343     H
H22    0.90953  0.91181  0.09681     H
H23    0.95298  0.01701  0.17326     H
O24      0.399    0.359  0.75796     O
N25     0.6987   0.3878  0.84716     N
C26     0.5875    0.347   0.7753     C
H27    0.65585  0.30618  0.73457     H
C28     0.9181   0.3689   0.8624     C
H29    0.96803  0.33318  0.81259     H
H30    0.91504  0.31507   0.9007     H
H31    0.01609  0.44609  0.88414     H
C32     0.6025   0.4533   0.9134     C
H33    0.69833  0.53175  0.93344     H
H34    0.58287  0.40705  0.95627     H
H35    0.46277  0.46432   0.8942     H
O36     0.6841   0.0949  0.93555     O
N37     0.3646    0.053   0.8585     N
C38     0.4898   0.1004   0.9267     C
H39    0.42843  0.13988  0.97012     H
C40     0.4547   0.9908   0.7891     C
H41    0.36442  0.91016  0.77123     H
H42    0.60108  0.98491  0.80446     H
H43     0.4582  0.03625  0.74593     H
C44     0.1369   0.0617   0.8506     C
H45    0.12243  0.11963  0.81657     H
H46    0.09047  0.08819  0.90319     H
H47    0.04702  0.98299  0.82673     H
H48      0.843    0.174    0.024     H
O49     0.2071  0.16494  0.65155     O
H50      0.258     0.24    0.677     H
O51     0.8889   0.2216  0.63781     O
O52     0.9318   0.2048  0.06648     O
O53     0.6755   0.3064  0.10228     O
C54     0.5934   0.6266  0.52606     C
C55     0.4557   0.5832  0.45429     C
H56    0.42528   0.6392  0.42367     H
C57     0.3627   0.4593  0.42711     C
C58     0.6981   0.7603  0.54945     C
C59     0.9247    0.799  0.56851     C
H60    0.01162  0.74171  0.56421     H
C61     0.0213   0.9225  0.59384     C
H62    0.17229  0.94696  0.60636     H
C63      0.894     0.01  0.60068     C
C64     0.6696   0.9716  0.57952     C
H65    0.58304  0.02899  0.58283     H
C66     0.5731   0.8482  0.55346     C
H67    0.42315  0.82424  0.53852     H
C68     0.9936   0.1424  0.63115     C
C69     0.2321   0.4178  0.34653     C
C70     0.3022    0.337   0.2853     C
H71    0.43139   0.3118  0.29463     H
C72      0.181   0.2947  0.21114     C
H73    0.23021  0.24189  0.17108     H
C74     0.9867   0.3303    0.196     C
C75     0.9183   0.4128   0.2555     C
H76    0.78998  0.43856  0.24551     H
C77     0.0409   0.4569     0.33     C
H78    0.99498  0.51277    0.369     H
C79     0.8483   0.2811   0.1176     C
O80     0.7929  0.83506  0.34845     O
H81      0.742     0.76    0.323     H
O82     0.1111   0.7784  0.36219     O
O83     0.0682   0.7952  0.93352     O
H84      0.157    0.826    0.976     H
O85     0.3245   0.6936  0.89772     O
C86     0.4066   0.3734  0.47394     C
C87     0.5443   0.4168  0.54571     C
H88    0.57472   0.3608  0.57633     H
C89     0.6373   0.5407  0.57289     C
C90     0.3019   0.2397  0.45055     C
C91     0.0753    0.201  0.43149     C
H92    0.98838  0.25829  0.43579     H
C93     0.9787   0.0775  0.40616     C
H94    0.82771  0.05304  0.39364     H
C95      0.106     0.99  0.39932     C
C96     0.3304   0.0284  0.42048     C
H97    0.41696  0.97101  0.41717     H
C98     0.4269   0.1518  0.44654     C
H99    0.57685  0.17576  0.46148     H
C100    0.0064   0.8576  0.36885     C
C101    0.7679   0.5822  0.65347     C
C102    0.6978    0.663   0.7147     C
H103   0.56861   0.6882  0.70537     H
C104     0.819   0.7053  0.78886     C
H105   0.76979  0.75811  0.82892     H
C106    0.0133   0.6697    0.804     C
C107    0.0817   0.5872   0.7445     C
H108   0.21002  0.56144  0.75449     H
C109    0.9591   0.5431     0.67     C
H110   0.00502  0.48723    0.631     H
C111    0.1517   0.7189   0.8824     C
loop_
_geom_bond_atom_site_label_1
_geom_bond_atom_site_label_2
_geom_bond_distance
_geom_bond_site_symmetry_2
_ccdc_geom_bond_type
H48   O36    1.74368   1_554     S
O36   H48    1.74368   1_556     S
H50   O24    1.79359       .     S
O24   H50    1.79359       .     S
H81   O0     1.79359       .     S
O0    H81    1.79359       .     S
H84   O12    1.74369   1_556     S
O12   H84    1.74368   1_554     S
O0    C2     1.24437       .     S
C2    O0     1.24437       .     S
N1    C2     1.32511       .     S
C2    N1     1.32511       .     S
N1    C4     1.45324       .     S
C4    N1     1.45324       .     S
N1    C8     1.45408       .     S
C8    N1     1.45408       .     S
C2    H3     0.93013       .     S
H3    C2     0.93013       .     S
C4    H5     0.95932       .     S
H5    C4     0.95932       .     S
C4    H6     0.96033       .     S
H6    C4     0.96033       .     S
C4    H7     0.96027   1_455     S
H7    C4     0.96027   1_655     S
C8    H9     0.95986       .     S
H9    C8     0.95986       .     S
C8    H10    0.95997       .     S
H10   C8     0.95997       .     S
C8    H11    0.96002       .     S
H11   C8     0.96002       .     S
O12   C14    1.23458       .     S
C14   O12    1.23458       .     S
N13   C14    1.32258       .     S
C14   N13    1.32258       .     S
N13   C16    1.45444   1_565     S
C16   N13    1.45444   1_545     S
N13   C20    1.45102       .     S
C20   N13    1.45102       .     S
C14   H15    0.92952       .     S
H15   C14    0.92952       .     S
C16   H17    0.95990       .     S
H17   C16    0.95990       .     S
C16   H18    0.96045       .     S
H18   C16    0.96045       .     S
C16   H19    0.95930   1_545     S
H19   C16    0.95930   1_565     S
C20   H21    0.96005       .     S
H21   C20    0.96005       .     S
C20   H22    0.95984       .     S
H22   C20    0.95984       .     S
C20   H23    0.96022   1_565     S
H23   C20    0.96022   1_545     S
O24   C26    1.24437       .     S
C26   O24    1.24437       .     S
N25   C26    1.32511       .     S
C26   N25    1.32511       .     S
N25   C28    1.45324       .     S
C28   N25    1.45324       .     S
N25   C32    1.45408       .     S
C32   N25    1.45408       .     S
C26   H27    0.93013       .     S
H27   C26    0.93013       .     S
C28   H29    0.95932       .     S
H29   C28    0.95932       .     S
C28   H30    0.96033       .     S
H30   C28    0.96033       .     S
C28   H31    0.96027   1_655     S
H31   C28    0.96027   1_455     S
C32   H33    0.95986       .     S
H33   C32    0.95986       .     S
C32   H34    0.95997       .     S
H34   C32    0.95997       .     S
C32   H35    0.96002       .     S
H35   C32    0.96002       .     S
O36   C38    1.23458       .     S
C38   O36    1.23458       .     S
N37   C38    1.32258       .     S
C38   N37    1.32258       .     S
N37   C40    1.45444   1_545     S
C40   N37    1.45444   1_565     S
N37   C44    1.45102       .     S
C44   N37    1.45102       .     S
C38   H39    0.92952       .     S
H39   C38    0.92952       .     S
C40   H41    0.95990       .     S
H41   C40    0.95990       .     S
C40   H42    0.96045       .     S
H42   C40    0.96045       .     S
C40   H43    0.95930   1_565     S
H43   C40    0.95930   1_545     S
C44   H45    0.96005       .     S
H45   C44    0.96005       .     S
C44   H46    0.95984       .     S
H46   C44    0.95984       .     S
C44   H47    0.96026   1_545     S
H47   C44    0.96026   1_565     S
H48   O52    0.85939       .     S
O52   H48    0.85939       .     S
O49   H50    0.87220       .     S
H50   O49    0.87220       .     S
O49   C68    1.32393   1_455     S
C68   O49    1.32393   1_655     S
O51   C68    1.21566       .     S
C68   O51    1.21566       .     S
O52   C79    1.31772       .     S
C79   O52    1.31772       .     S
O53   C79    1.20564       .     S
C79   O53    1.20564       .     S
C54   C55    1.40241       .     S
C55   C54    1.40241       .     S
C54   C58    1.49898       .     S
C58   C54    1.49898       .     S
C54   C89    1.41919       .     S
C89   C54    1.41919       .     S
C55   H56    0.92985       .     S
H56   C55    0.92985       .     S
C55   C57    1.39353       .     S
C57   C55    1.39353       .     S
C57   C69    1.49871       .     S
C69   C57    1.49871       .     S
C57   C86    1.41919       .     S
C86   C57    1.41919       .     S
C58   C59    1.39760       .     S
C59   C58    1.39760       .     S
C58   C66    1.39020       .     S
C66   C58    1.39020       .     S
C59   H60    0.92986   1_655     S
H60   C59    0.92986   1_455     S
C59   C61    1.39017   1_655     S
C61   C59    1.39017   1_455     S
C61   H62    0.93008       .     S
H62   C61    0.93008       .     S
C61   C63    1.39513   1_465     S
C63   C61    1.39513   1_645     S
C63   C64    1.38972   1_545     S
C64   C63    1.38972   1_565     S
C63   C68    1.49282       .     S
C68   C63    1.49282       .     S
C64   H65    0.92962   1_565     S
H65   C64    0.92962   1_545     S
C64   C66    1.39050       .     S
C66   C64    1.39050       .     S
C66   H67    0.93009       .     S
H67   C66    0.93009       .     S
C69   C70    1.40615       .     S
C70   C69    1.40615       .     S
C69   C77    1.39602       .     S
C77   C69    1.39602       .     S
C70   H71    0.92963       .     S
H71   C70    0.92963       .     S
C70   C72    1.38482       .     S
C72   C70    1.38482       .     S
C72   H73    0.92987       .     S
H73   C72    0.92987       .     S
C72   C74    1.38819   1_455     S
C74   C72    1.38819   1_655     S
C74   C75    1.39468       .     S
C75   C74    1.39468       .     S
C74   C79    1.49733       .     S
C79   C74    1.49733       .     S
C75   H76    0.93010       .     S
H76   C75    0.93010       .     S
C75   C77    1.39496   1_655     S
C77   C75    1.39496   1_455     S
C77   H78    0.93013   1_455     S
H78   C77    0.93013   1_655     S
O80   H81    0.87220       .     S
H81   O80    0.87220       .     S
O80   C100   1.32393   1_655     S
C100  O80    1.32393   1_455     S
O82   C100   1.21566       .     S
C100  O82    1.21566       .     S
O83   H84    0.85939       .     S
H84   O83    0.85939       .     S
O83   C111   1.31772       .     S
C111  O83    1.31772       .     S
O85   C111   1.20564       .     S
C111  O85    1.20564       .     S
C86   C87    1.40241       .     S
C87   C86    1.40241       .     S
C86   C90    1.49898       .     S
C90   C86    1.49898       .     S
C87   H88    0.92985       .     S
H88   C87    0.92985       .     S
C87   C89    1.39354       .     S
C89   C87    1.39354       .     S
C89   C101   1.49871       .     S
C101  C89    1.49871       .     S
C90   C91    1.39760       .     S
C91   C90    1.39760       .     S
C90   C98    1.39020       .     S
C98   C90    1.39020       .     S
C91   H92    0.92986   1_455     S
H92   C91    0.92986   1_655     S
C91   C93    1.39017   1_455     S
C93   C91    1.39017   1_655     S
C93   H94    0.93008       .     S
H94   C93    0.93008       .     S
C93   C95    1.39513   1_645     S
C95   C93    1.39513   1_465     S
C95   C96    1.38972   1_565     S
C96   C95    1.38972   1_545     S
C95   C100   1.49282       .     S
C100  C95    1.49282       .     S
C96   H97    0.92962   1_545     S
H97   C96    0.92962   1_565     S
C96   C98    1.39050       .     S
C98   C96    1.39050       .     S
C98   H99    0.93009       .     S
H99   C98    0.93009       .     S
C101  C102   1.40615       .     S
C102  C101   1.40615       .     S
C101  C109   1.39602       .     S
C109  C101   1.39602       .     S
C102  H103   0.92963       .     S
H103  C102   0.92963       .     S
C102  C104   1.38482       .     S
C104  C102   1.38482       .     S
C104  H105   0.92987       .     S
H105  C104   0.92987       .     S
C104  C106   1.38819   1_655     S
C106  C104   1.38819   1_455     S
C106  C107   1.39468       .     S
C107  C106   1.39468       .     S
C106  C111   1.49733       .     S
C111  C106   1.49733       .     S
C107  H108   0.93010       .     S
H108  C107   0.93010       .     S
C107  C109   1.39496   1_455     S
C109  C107   1.39496   1_655     S
C109  H110   0.93013   1_655     S
H110  C109   0.93013   1_455     S
O36   H48    1.74368   1_556     S
H48   O36    1.74368   1_554     S
O24   H50    1.79359       .     S
H50   O24    1.79359       .     S
O0    H81    1.79359       .     S
H81   O0     1.79359       .     S
O12   H84    1.74368   1_554     S
H84   O12    1.74369   1_556     S
C2    O0     1.24437       .     S
O0    C2     1.24437       .     S
C2    N1     1.32511       .     S
N1    C2     1.32511       .     S
C4    N1     1.45324       .     S
N1    C4     1.45324       .     S
C8    N1     1.45408       .     S
N1    C8     1.45408       .     S
H3    C2     0.93013       .     S
C2    H3     0.93013       .     S
H5    C4     0.95932       .     S
C4    H5     0.95932       .     S
H6    C4     0.96033       .     S
C4    H6     0.96033       .     S
H7    C4     0.96027   1_655     S
C4    H7     0.96027   1_455     S
H9    C8     0.95986       .     S
C8    H9     0.95986       .     S
H10   C8     0.95997       .     S
C8    H10    0.95997       .     S
H11   C8     0.96002       .     S
C8    H11    0.96002       .     S
C14   O12    1.23458       .     S
O12   C14    1.23458       .     S
C14   N13    1.32258       .     S
N13   C14    1.32258       .     S
C16   N13    1.45444   1_545     S
N13   C16    1.45444   1_565     S
C20   N13    1.45102       .     S
N13   C20    1.45102       .     S
H15   C14    0.92952       .     S
C14   H15    0.92952       .     S
H17   C16    0.95990       .     S
C16   H17    0.95990       .     S
H18   C16    0.96045       .     S
C16   H18    0.96045       .     S
H19   C16    0.95930   1_565     S
C16   H19    0.95930   1_545     S
H21   C20    0.96005       .     S
C20   H21    0.96005       .     S
H22   C20    0.95984       .     S
C20   H22    0.95984       .     S
H23   C20    0.96022   1_545     S
C20   H23    0.96022   1_565     S
C26   O24    1.24437       .     S
O24   C26    1.24437       .     S
C26   N25    1.32511       .     S
N25   C26    1.32511       .     S
C28   N25    1.45324       .     S
N25   C28    1.45324       .     S
C32   N25    1.45408       .     S
N25   C32    1.45408       .     S
H27   C26    0.93013       .     S
C26   H27    0.93013       .     S
H29   C28    0.95932       .     S
C28   H29    0.95932       .     S
H30   C28    0.96033       .     S
C28   H30    0.96033       .     S
H31   C28    0.96027   1_455     S
C28   H31    0.96027   1_655     S
H33   C32    0.95986       .     S
C32   H33    0.95986       .     S
H34   C32    0.95997       .     S
C32   H34    0.95997       .     S
H35   C32    0.96002       .     S
C32   H35    0.96002       .     S
C38   O36    1.23458       .     S
O36   C38    1.23458       .     S
C38   N37    1.32258       .     S
N37   C38    1.32258       .     S
C40   N37    1.45444   1_565     S
N37   C40    1.45444   1_545     S
C44   N37    1.45102       .     S
N37   C44    1.45102       .     S
H39   C38    0.92952       .     S
C38   H39    0.92952       .     S
H41   C40    0.95990       .     S
C40   H41    0.95990       .     S
H42   C40    0.96045       .     S
C40   H42    0.96045       .     S
H43   C40    0.95930   1_545     S
C40   H43    0.95930   1_565     S
H45   C44    0.96005       .     S
C44   H45    0.96005       .     S
H46   C44    0.95984       .     S
C44   H46    0.95984       .     S
H47   C44    0.96026   1_565     S
C44   H47    0.96026   1_545     S
O52   H48    0.85939       .     S
H48   O52    0.85939       .     S
H50   O49    0.87220       .     S
O49   H50    0.87220       .     S
C68   O49    1.32393   1_655     S
O49   C68    1.32393   1_455     S
C68   O51    1.21566       .     S
O51   C68    1.21566       .     S
C79   O52    1.31772       .     S
O52   C79    1.31772       .     S
C79   O53    1.20564       .     S
O53   C79    1.20564       .     S
C55   C54    1.40241       .     S
C54   C55    1.40241       .     S
C58   C54    1.49898       .     S
C54   C58    1.49898       .     S
C89   C54    1.41919       .     S
C54   C89    1.41919       .     S
H56   C55    0.92985       .     S
C55   H56    0.92985       .     S
C57   C55    1.39353       .     S
C55   C57    1.39353       .     S
C69   C57    1.49871       .     S
C57   C69    1.49871       .     S
C86   C57    1.41919       .     S
C57   C86    1.41919       .     S
C59   C58    1.39760       .     S
C58   C59    1.39760       .     S
C66   C58    1.39020       .     S
C58   C66    1.39020       .     S
H60   C59    0.92986   1_455     S
C59   H60    0.92986   1_655     S
C61   C59    1.39017   1_455     S
C59   C61    1.39017   1_655     S
H62   C61    0.93008       .     S
C61   H62    0.93008       .     S
C63   C61    1.39513   1_645     S
C61   C63    1.39513   1_465     S
C64   C63    1.38972   1_565     S
C63   C64    1.38972   1_545     S
C68   C63    1.49282       .     S
C63   C68    1.49282       .     S
H65   C64    0.92962   1_545     S
C64   H65    0.92962   1_565     S
C66   C64    1.39050       .     S
C64   C66    1.39050       .     S
H67   C66    0.93009       .     S
C66   H67    0.93009       .     S
C70   C69    1.40615       .     S
C69   C70    1.40615       .     S
C77   C69    1.39602       .     S
C69   C77    1.39602       .     S
H71   C70    0.92963       .     S
C70   H71    0.92963       .     S
C72   C70    1.38482       .     S
C70   C72    1.38482       .     S
H73   C72    0.92987       .     S
C72   H73    0.92987       .     S
C74   C72    1.38819   1_655     S
C72   C74    1.38819   1_455     S
C75   C74    1.39468       .     S
C74   C75    1.39468       .     S
C79   C74    1.49733       .     S
C74   C79    1.49733       .     S
H76   C75    0.93010       .     S
C75   H76    0.93010       .     S
C77   C75    1.39496   1_455     S
C75   C77    1.39496   1_655     S
H78   C77    0.93013   1_655     S
C77   H78    0.93013   1_455     S
H81   O80    0.87220       .     S
O80   H81    0.87220       .     S
C100  O80    1.32393   1_455     S
O80   C100   1.32393   1_655     S
C100  O82    1.21566       .     S
O82   C100   1.21566       .     S
H84   O83    0.85939       .     S
O83   H84    0.85939       .     S
C111  O83    1.31772       .     S
O83   C111   1.31772       .     S
C111  O85    1.20564       .     S
O85   C111   1.20564       .     S
C87   C86    1.40241       .     S
C86   C87    1.40241       .     S
C90   C86    1.49898       .     S
C86   C90    1.49898       .     S
H88   C87    0.92985       .     S
C87   H88    0.92985       .     S
C89   C87    1.39354       .     S
C87   C89    1.39354       .     S
C101  C89    1.49871       .     S
C89   C101   1.49871       .     S
C91   C90    1.39760       .     S
C90   C91    1.39760       .     S
C98   C90    1.39020       .     S
C90   C98    1.39020       .     S
H92   C91    0.92986   1_655     S
C91   H92    0.92986   1_455     S
C93   C91    1.39017   1_655     S
C91   C93    1.39017   1_455     S
H94   C93    0.93008       .     S
C93   H94    0.93008       .     S
C95   C93    1.39513   1_465     S
C93   C95    1.39513   1_645     S
C96   C95    1.38972   1_545     S
C95   C96    1.38972   1_565     S
C100  C95    1.49282       .     S
C95   C100   1.49282       .     S
H97   C96    0.92962   1_565     S
C96   H97    0.92962   1_545     S
C98   C96    1.39050       .     S
C96   C98    1.39050       .     S
H99   C98    0.93009       .     S
C98   H99    0.93009       .     S
C102  C101   1.40615       .     S
C101  C102   1.40615       .     S
C109  C101   1.39602       .     S
C101  C109   1.39602       .     S
H103  C102   0.92963       .     S
C102  H103   0.92963       .     S
C104  C102   1.38482       .     S
C102  C104   1.38482       .     S
H105  C104   0.92987       .     S
C104  H105   0.92987       .     S
C106  C104   1.38819   1_455     S
C104  C106   1.38819   1_655     S
C107  C106   1.39468       .     S
C106  C107   1.39468       .     S
C111  C106   1.49733       .     S
C106  C111   1.49733       .     S
H108  C107   0.93010       .     S
C107  H108   0.93010       .     S
C109  C107   1.39496   1_655     S
C107  C109   1.39496   1_455     S
H110  C109   0.93013   1_455     S
C109  H110   0.93013   1_655     S
