data_I
_chemical_name_common  '/data/user2/wty/HOF/MOFDiff/mofdiff/data/test/219n-hexane@hof-tri-pmdi-br'
_cell_length_a 20.05470
_cell_length_b 20.05470
_cell_length_c 11.37180
_cell_angle_alpha 90.00000
_cell_angle_beta  90.00000
_cell_angle_gamma 120.00000
_space_group_name_H-M_alt      'P 1'


loop_
_space_group_symop_operation_xyz
  'x, y, z' 

loop_
_atom_site_label
_atom_site_fract_x
_atom_site_fract_y
_atom_site_fract_z
_atom_site_type_symbol
Br0    0.76958  0.56298  0.53957    Br
O1      0.6126   0.5399   0.4308     O
O2      0.6322   0.5472   0.0309     O
N3      0.6033   0.5408   0.2283     N
C4      0.7216    0.554   0.1813     C
C5      0.6487   0.5478   0.1317     C
C6      0.5269   0.5355   0.2143     C
H7     0.51184  0.52448  0.12966     H
C8      0.6389   0.5454   0.3346     C
C9      0.7739   0.5577   0.3746     C
C10      0.716   0.5544   0.3042     C
C11     0.5334   0.6133   0.2449     C
H12    0.54616  0.62504  0.32926     H
H13    0.57493  0.65489  0.19795     H
C14     0.4575    0.609   0.2185     C
H15    0.44809  0.60309  0.13266     H
H16    0.46038  0.65783  0.24277     H
C17      0.651    0.308    0.292     C
H18    0.69169  0.29384  0.30689     H
H19    0.60246  0.25937  0.27576     H
C20       0.65    0.311    0.513     C
H21    0.69015   0.2975  0.50303     H
H22     0.6008  0.26477  0.53023     H
H23    0.66371  0.34806  0.57734     H
C24      0.672    0.315    0.078     C
H25    0.63096  0.26039  0.08754     H
H26    0.72178  0.31571  0.07217     H
C27      0.658    0.346    0.965     C
H28     0.6389  0.30575    0.905     H
H29    0.70679  0.39014  0.93875     H
H30    0.62038  0.36228  0.97944     H
C31      0.673     0.36    0.186     C
H32    0.72562   0.4045   0.1967     H
H33    0.63676  0.37856  0.17581     H
C34      0.642    0.347    0.399     C
H35    0.68143  0.40232  0.39778     H
H36    0.59067  0.34283  0.39726     H
loop_
_geom_bond_atom_site_label_1
_geom_bond_atom_site_label_2
_geom_bond_distance
_geom_bond_site_symmetry_2
_ccdc_geom_bond_type
Br0   C9     1.88342       .     S
C9    Br0    1.88342       .     S
O1    C8     1.19538       .     S
C8    O1     1.19538       .     S
O2    C5     1.19147       .     S
C5    O2     1.19147       .     S
N3    C5     1.38838       .     S
C5    N3     1.38838       .     S
N3    C6     1.49042       .     S
C6    N3     1.49042       .     S
N3    C8     1.38334       .     S
C8    N3     1.38334       .     S
C4    C5     1.51302       .     S
C5    C4     1.51302       .     S
C4    C10    1.40244       .     S
C10   C4     1.40244       .     S
C6    H7     0.99987       .     S
H7    C6     0.99987       .     S
C6    C11    1.53919       .     S
C11   C6     1.53919       .     S
C8    C10    1.50459       .     S
C10   C8     1.50459       .     S
C9    C10    1.38447       .     S
C10   C9     1.38447       .     S
C11   H12    0.99044       .     S
H12   C11    0.99044       .     S
C11   H13    0.98981       .     S
H13   C11    0.98981       .     S
C11   C14    1.51104       .     S
C14   C11    1.51104       .     S
C14   H15    0.99004       .     S
H15   C14    0.99004       .     S
C14   H16    0.99092       .     S
H16   C14    0.99092       .     S
C17   H18    1.00347       .     S
H18   C17    1.00347       .     S
C17   H19    0.99171       .     S
H19   C17    0.99171       .     S
C17   C31    1.50834       .     S
C31   C17    1.50834       .     S
C17   C34    1.50534       .     S
C34   C17    1.50534       .     S
C20   H21    0.97596       .     S
H21   C20    0.97596       .     S
C20   H22    0.97812       .     S
H22   C20    0.97812       .     S
C20   H23    0.97927       .     S
H23   C20    0.97927       .     S
C20   C34    1.53083       .     S
C34   C20    1.53083       .     S
C24   H25    0.99359       .     S
H25   C24    0.99359       .     S
C24   H26    0.99350       .     S
H26   C24    0.99350       .     S
C24   C27    1.51365   1_554     S
C27   C24    1.51365   1_556     S
C24   C31    1.51826       .     S
C31   C24    1.51826       .     S
C27   H28    0.97706       .     S
H28   C27    0.97706       .     S
C27   H29    0.98181       .     S
H29   C27    0.98181       .     S
C27   H30    0.97421       .     S
H30   C27    0.97421       .     S
C31   H32    0.99151       .     S
H32   C31    0.99151       .     S
C31   H33    0.97504       .     S
H33   C31    0.97504       .     S
C34   H35    0.98946       .     S
H35   C34    0.98946       .     S
C34   H36    0.99044       .     S
H36   C34    0.99044       .     S
C9    Br0    1.88342       .     S
Br0   C9     1.88342       .     S
C8    O1     1.19538       .     S
O1    C8     1.19538       .     S
C5    O2     1.19147       .     S
O2    C5     1.19147       .     S
C5    N3     1.38838       .     S
N3    C5     1.38838       .     S
C6    N3     1.49042       .     S
N3    C6     1.49042       .     S
C8    N3     1.38334       .     S
N3    C8     1.38334       .     S
C5    C4     1.51302       .     S
C4    C5     1.51302       .     S
C10   C4     1.40244       .     S
C4    C10    1.40244       .     S
H7    C6     0.99987       .     S
C6    H7     0.99987       .     S
C11   C6     1.53919       .     S
C6    C11    1.53919       .     S
C10   C8     1.50459       .     S
C8    C10    1.50459       .     S
C10   C9     1.38447       .     S
C9    C10    1.38447       .     S
H12   C11    0.99044       .     S
C11   H12    0.99044       .     S
H13   C11    0.98981       .     S
C11   H13    0.98981       .     S
C14   C11    1.51104       .     S
C11   C14    1.51104       .     S
H15   C14    0.99004       .     S
C14   H15    0.99004       .     S
H16   C14    0.99092       .     S
C14   H16    0.99092       .     S
H18   C17    1.00347       .     S
C17   H18    1.00347       .     S
H19   C17    0.99171       .     S
C17   H19    0.99171       .     S
C31   C17    1.50834       .     S
C17   C31    1.50834       .     S
C34   C17    1.50534       .     S
C17   C34    1.50534       .     S
H21   C20    0.97596       .     S
C20   H21    0.97596       .     S
H22   C20    0.97812       .     S
C20   H22    0.97812       .     S
H23   C20    0.97927       .     S
C20   H23    0.97927       .     S
C34   C20    1.53083       .     S
C20   C34    1.53083       .     S
H25   C24    0.99359       .     S
C24   H25    0.99359       .     S
H26   C24    0.99350       .     S
C24   H26    0.99350       .     S
C27   C24    1.51365   1_556     S
C24   C27    1.51365   1_554     S
C31   C24    1.51826       .     S
C24   C31    1.51826       .     S
H28   C27    0.97706       .     S
C27   H28    0.97706       .     S
H29   C27    0.98181       .     S
C27   H29    0.98181       .     S
H30   C27    0.97421       .     S
C27   H30    0.97421       .     S
H32   C31    0.99151       .     S
C31   H32    0.99151       .     S
H33   C31    0.97504       .     S
C31   H33    0.97504       .     S
H35   C34    0.98946       .     S
C34   H35    0.98946       .     S
H36   C34    0.99044       .     S
C34   H36    0.99044       .     S
