data_I
_chemical_name_common  '/data/user2/wty/HOF/MOFDiff/mofdiff/data/test/2262206854'
_cell_length_a  8.71300
_cell_length_b 10.14600
_cell_length_c 14.25700
_cell_angle_alpha 91.18300
_cell_angle_beta  104.08100
_cell_angle_gamma 101.05900
_space_group_name_H-M_alt      'P 1'


loop_
_space_group_symop_operation_xyz
  'x, y, z' 

loop_
_atom_site_label
_atom_site_fract_x
_atom_site_fract_y
_atom_site_fract_z
_atom_site_type_symbol
C0      0.8886   0.7739   0.0897     C
H1     0.00112  0.80422  0.09256     H
H2     0.87728  0.74278   0.1513     H
H3     0.84279  0.70161  0.04041     H
N4      0.8048   0.8846   0.0669     N
H5     0.84969  0.95194  0.11217     H
H6     0.81806   0.9142  0.01049     H
C7      0.6342   0.8485   0.0611     C
H8     0.58601  0.92547  0.04592     H
H9     0.58425  0.77739  0.01133     H
H10    0.61875  0.81856  0.12222     H
O11     0.6752   0.1355  0.86666     O
H12    0.72085  0.14508  0.92463     H
O13     0.8034   0.1929  0.04307     O
O14     0.7288   0.3857   0.0093     O
O15     0.7787   0.9516    0.875     O
O16     0.1044   0.8154   0.3757     O
O17     0.8725   0.9875   0.2536     O
O18     0.4009   0.6346   0.4741     O
O19      0.584   0.6024  0.60504     O
H20    0.57624  0.53294  0.57229     H
O21     0.6222   0.6556   0.2681     O
O22     0.7552   0.6462     0.42     O
N23     0.0318   0.2491     0.41     N
H24    0.07662  0.29246  0.46541     H
N25     0.2702   0.0831   0.5404     N
H26     0.2778   0.1615  0.56722     H
C27     0.7826   0.4903   0.3021     C
C28     0.4871   0.8035   0.6026     C
C29     0.4722   0.0497   0.6818     C
H30    0.46599  0.13224  0.70861     H
C31     0.5799   0.9759   0.7334     C
C32      0.812   0.3461   0.1737     C
C33     0.7516   0.4508   0.2043     C
H34    0.68896  0.49578  0.15866     H
C35     0.9353   0.3152   0.3394     C
C36      0.586   0.8527   0.6923     C
H37    0.65785  0.80255  0.72575     H
C38     0.1592   0.0495   0.4559     C
C39     0.3825   0.8787   0.5522     C
H40    0.31699  0.84596  0.49126     H
C41     0.8732     0.42   0.3685     C
H42    0.89274  0.44373  0.43433     H
C43     0.9061   0.2799   0.2417     C
H44    0.95005  0.21113  0.22146     H
C45     0.0888   0.9315   0.3849     C
C46     0.6871   0.0219   0.8317     C
C47     0.3738   0.0015   0.5907     C
C48      0.056   0.1254   0.3986     C
C49     0.7794   0.3081   0.0683     C
C50     0.9824   0.0114   0.3282     C
C51     0.4941   0.6715   0.5593     C
C52     0.7153   0.6061   0.3327     C
C53     0.8051   0.3927   0.7569     C
H54    0.78056  0.29738  0.74074     H
H55    0.79107  0.43927   0.6984     H
H56    0.91489  0.41935  0.79449     H
N57     0.6958   0.4266   0.8134     N
H58    0.59433  0.39941  0.77854     H
H59     0.7078  0.38115   0.8666     H
C60     0.7223   0.5696   0.8421     C
H61    0.64704  0.58395  0.87853     H
H62    0.83064  0.59956  0.88128     H
H63    0.70682  0.61949  0.78518     H
loop_
_geom_bond_atom_site_label_1
_geom_bond_atom_site_label_2
_geom_bond_distance
_geom_bond_site_symmetry_2
_ccdc_geom_bond_type
H5    O17    1.99571       .     S
O17   H5     1.99571       .     S
H6    O15    1.93671   1_554     S
O15   H6     1.93671   1_556     S
H12   O13    1.68684   1_556     S
O13   H12    1.68684   1_554     S
H59   O11    2.45381       .     S
O11   H59    2.45381       .     S
H59   O14    1.99661   1_556     S
O14   H59    1.99661   1_554     S
C0    H1     0.96010   1_655     S
H1    C0     0.96010   1_455     S
C0    H2     0.96040       .     S
H2    C0     0.96040       .     S
C0    H3     0.95970       .     S
H3    C0     0.95970       .     S
C0    N4     1.45412       .     S
N4    C0     1.45412       .     S
N4    H5     0.89038       .     S
H5    N4     0.89038       .     S
N4    H6     0.89006       .     S
H6    N4     0.89006       .     S
N4    C7     1.44242       .     S
C7    N4     1.44242       .     S
C7    H8     0.95998       .     S
H8    C7     0.95998       .     S
C7    H9     0.95998       .     S
H9    C7     0.95998       .     S
C7    H10    0.96023       .     S
H10   C7     0.96023       .     S
O11   H12    0.82013       .     S
H12   O11    0.82013       .     S
O11   C46    1.27863       .     S
C46   O11    1.27863       .     S
O13   C49    1.28540       .     S
C49   O13    1.28540       .     S
O14   C49    1.22551       .     S
C49   O14    1.22551       .     S
O15   C46    1.23436   1_565     S
C46   O15    1.23436   1_545     S
O16   C45    1.21941       .     S
C45   O16    1.21941       .     S
O17   C50    1.22948   1_565     S
C50   O17    1.22948   1_545     S
O18   C51    1.28829       .     S
C51   O18    1.28829       .     S
O19   H20    0.81976       .     S
H20   O19    0.81976       .     S
O19   C51    1.22937       .     S
C51   O19    1.22937       .     S
O21   C52    1.25314       .     S
C52   O21    1.25314       .     S
O22   C52    1.24491       .     S
C52   O22    1.24491       .     S
N23   H24    0.86008       .     S
H24   N23    0.86008       .     S
N23   C35    1.41501   1_455     S
C35   N23    1.41501   1_655     S
N23   C48    1.32508       .     S
C48   N23    1.32508       .     S
N25   H26    0.85921       .     S
H26   N25    0.85921       .     S
N25   C38    1.33886       .     S
C38   N25    1.33886       .     S
N25   C47    1.41801       .     S
C47   N25    1.41801       .     S
C27   C33    1.38920       .     S
C33   C27    1.38920       .     S
C27   C41    1.38142       .     S
C41   C27    1.38142       .     S
C27   C52    1.51070       .     S
C52   C27    1.51070       .     S
C28   C36    1.37826       .     S
C36   C28    1.37826       .     S
C28   C39    1.37834       .     S
C39   C28    1.37834       .     S
C28   C51    1.48121       .     S
C51   C28    1.48121       .     S
C29   H30    0.92983       .     S
H30   C29    0.92983       .     S
C29   C31    1.39242   1_545     S
C31   C29    1.39242   1_565     S
C29   C47    1.39004       .     S
C47   C29    1.39004       .     S
C31   C36    1.38530       .     S
C36   C31    1.38530       .     S
C31   C46    1.49102   1_565     S
C46   C31    1.49102   1_545     S
C32   C33    1.37941       .     S
C33   C32    1.37941       .     S
C32   C43    1.38370       .     S
C43   C32    1.38370       .     S
C32   C49    1.48788       .     S
C49   C32    1.48788       .     S
C33   H34    0.92982       .     S
H34   C33    0.92982       .     S
C35   C41    1.38102       .     S
C41   C35    1.38102       .     S
C35   C43    1.38029       .     S
C43   C35    1.38029       .     S
C36   H37    0.93016       .     S
H37   C36    0.93016       .     S
C38   C45    1.48336   1_545     S
C45   C38    1.48336   1_565     S
C38   C48    1.41532       .     S
C48   C38    1.41532       .     S
C39   H40    0.93007       .     S
H40   C39    0.93007       .     S
C39   C47    1.37390   1_565     S
C47   C39    1.37390   1_545     S
C41   H42    0.93005       .     S
H42   C41    0.93005       .     S
C43   H44    0.92990       .     S
H44   C43    0.92990       .     S
C45   C50    1.45630   1_465     S
C50   C45    1.45630   1_645     S
C48   C50    1.45285   1_455     S
C50   C48    1.45285   1_655     S
C53   H54    0.96001       .     S
H54   C53    0.96001       .     S
C53   H55    0.96054       .     S
H55   C53    0.96054       .     S
C53   H56    0.95955       .     S
H56   C53    0.95955       .     S
C53   N57    1.47023       .     S
N57   C53    1.47023       .     S
N57   H58    0.88979       .     S
H58   N57    0.88979       .     S
N57   H59    0.89062       .     S
H59   N57    0.89062       .     S
N57   C60    1.45835       .     S
C60   N57    1.45835       .     S
C60   H61    0.95926       .     S
H61   C60    0.95926       .     S
C60   H62    0.96012       .     S
H62   C60    0.96012       .     S
C60   H63    0.96065       .     S
H63   C60    0.96065       .     S
O17   H5     1.99571       .     S
H5    O17    1.99571       .     S
O15   H6     1.93671   1_556     S
H6    O15    1.93671   1_554     S
O13   H12    1.68684   1_554     S
H12   O13    1.68684   1_556     S
O11   H59    2.45381       .     S
H59   O11    2.45381       .     S
O14   H59    1.99661   1_554     S
H59   O14    1.99661   1_556     S
H1    C0     0.96010   1_455     S
C0    H1     0.96010   1_655     S
H2    C0     0.96040       .     S
C0    H2     0.96040       .     S
H3    C0     0.95970       .     S
C0    H3     0.95970       .     S
N4    C0     1.45412       .     S
C0    N4     1.45412       .     S
H5    N4     0.89038       .     S
N4    H5     0.89038       .     S
H6    N4     0.89006       .     S
N4    H6     0.89006       .     S
C7    N4     1.44242       .     S
N4    C7     1.44242       .     S
H8    C7     0.95998       .     S
C7    H8     0.95998       .     S
H9    C7     0.95998       .     S
C7    H9     0.95998       .     S
H10   C7     0.96023       .     S
C7    H10    0.96023       .     S
H12   O11    0.82013       .     S
O11   H12    0.82013       .     S
C46   O11    1.27863       .     S
O11   C46    1.27863       .     S
C49   O13    1.28540       .     S
O13   C49    1.28540       .     S
C49   O14    1.22551       .     S
O14   C49    1.22551       .     S
C46   O15    1.23436   1_545     S
O15   C46    1.23436   1_565     S
C45   O16    1.21941       .     S
O16   C45    1.21941       .     S
C50   O17    1.22948   1_545     S
O17   C50    1.22948   1_565     S
C51   O18    1.28829       .     S
O18   C51    1.28829       .     S
H20   O19    0.81976       .     S
O19   H20    0.81976       .     S
C51   O19    1.22937       .     S
O19   C51    1.22937       .     S
C52   O21    1.25314       .     S
O21   C52    1.25314       .     S
C52   O22    1.24491       .     S
O22   C52    1.24491       .     S
H24   N23    0.86008       .     S
N23   H24    0.86008       .     S
C35   N23    1.41501   1_655     S
N23   C35    1.41501   1_455     S
C48   N23    1.32508       .     S
N23   C48    1.32508       .     S
H26   N25    0.85921       .     S
N25   H26    0.85921       .     S
C38   N25    1.33886       .     S
N25   C38    1.33886       .     S
C47   N25    1.41801       .     S
N25   C47    1.41801       .     S
C33   C27    1.38920       .     S
C27   C33    1.38920       .     S
C41   C27    1.38142       .     S
C27   C41    1.38142       .     S
C52   C27    1.51070       .     S
C27   C52    1.51070       .     S
C36   C28    1.37826       .     S
C28   C36    1.37826       .     S
C39   C28    1.37834       .     S
C28   C39    1.37834       .     S
C51   C28    1.48121       .     S
C28   C51    1.48121       .     S
H30   C29    0.92983       .     S
C29   H30    0.92983       .     S
C31   C29    1.39242   1_565     S
C29   C31    1.39242   1_545     S
C47   C29    1.39004       .     S
C29   C47    1.39004       .     S
C36   C31    1.38530       .     S
C31   C36    1.38530       .     S
C46   C31    1.49102   1_545     S
C31   C46    1.49102   1_565     S
C33   C32    1.37941       .     S
C32   C33    1.37941       .     S
C43   C32    1.38370       .     S
C32   C43    1.38370       .     S
C49   C32    1.48788       .     S
C32   C49    1.48788       .     S
H34   C33    0.92982       .     S
C33   H34    0.92982       .     S
C41   C35    1.38102       .     S
C35   C41    1.38102       .     S
C43   C35    1.38029       .     S
C35   C43    1.38029       .     S
H37   C36    0.93016       .     S
C36   H37    0.93016       .     S
C45   C38    1.48336   1_565     S
C38   C45    1.48336   1_545     S
C48   C38    1.41532       .     S
C38   C48    1.41532       .     S
H40   C39    0.93007       .     S
C39   H40    0.93007       .     S
C47   C39    1.37390   1_545     S
C39   C47    1.37390   1_565     S
H42   C41    0.93005       .     S
C41   H42    0.93005       .     S
H44   C43    0.92990       .     S
C43   H44    0.92990       .     S
C50   C45    1.45630   1_645     S
C45   C50    1.45630   1_465     S
C50   C48    1.45285   1_655     S
C48   C50    1.45285   1_455     S
H54   C53    0.96001       .     S
C53   H54    0.96001       .     S
H55   C53    0.96054       .     S
C53   H55    0.96054       .     S
H56   C53    0.95955       .     S
C53   H56    0.95955       .     S
N57   C53    1.47023       .     S
C53   N57    1.47023       .     S
H58   N57    0.88979       .     S
N57   H58    0.88979       .     S
H59   N57    0.89062       .     S
N57   H59    0.89062       .     S
C60   N57    1.45835       .     S
N57   C60    1.45835       .     S
H61   C60    0.95926       .     S
C60   H61    0.95926       .     S
H62   C60    0.96012       .     S
C60   H62    0.96012       .     S
H63   C60    0.96065       .     S
C60   H63    0.96065       .     S
