data_I
_chemical_name_common  '/data/user2/wty/HOF/MOFDiff/mofdiff/data/test/2272235813'
_cell_length_a  7.99010
_cell_length_b  9.64120
_cell_length_c  9.67240
_cell_angle_alpha 96.32200
_cell_angle_beta  113.87600
_cell_angle_gamma 93.63300
_space_group_name_H-M_alt      'P 1'


loop_
_space_group_symop_operation_xyz
  'x, y, z' 

loop_
_atom_site_label
_atom_site_fract_x
_atom_site_fract_y
_atom_site_fract_z
_atom_site_type_symbol
N0      0.3114  0.92381  0.10381     N
H1       0.382    0.921   0.1985     H
H2       0.236    0.855    0.038     H
N3      0.4294  0.15364    0.133     N
H4        0.52    0.143    0.229     H
H5       0.425   0.2311    0.095     H
N6      0.0793  0.93125  0.81661     N
H7       0.969    0.956    0.778     H
H8       0.099    0.901    0.737     H
N9      0.2048  0.04794  0.90425     N
H10      0.208    0.127    0.865     H
C11     0.3156  0.04131  0.04822     C
O12    0.74513  0.13112  0.42809     O
O13    0.86593  0.35588  0.86691     O
H14      0.889    0.298    0.802     H
O15    0.89284  0.18315  0.67925     O
O16      0.737  0.47152  0.12138     O
H17      0.729    0.498    0.025     H
O18    0.67466   0.6887  0.16569     O
O19    0.51474  0.81761  0.38403     O
O20     0.7043  0.53315   0.8593     O
O21    0.81792    0.879   0.4755     O
H22      0.787    0.964    0.463     H
C23    0.76322  0.40812  0.39405     C
H24    0.77418  0.34114  0.32224     H
C25    0.77857  0.36962  0.53281     C
C26    0.67126  0.78934   0.4345     C
C27    0.71176  0.57574  0.20549     C
C28    0.73217  0.54257  0.35846     C
C29    0.71497  0.64315  0.46552     C
C30    0.73186  0.60696  0.60493     C
H31    0.72123  0.67465   0.6763     H
C32    0.80607  0.21706  0.54844     C
C33     0.7769  0.45234  0.79864     C
C34    0.76425  0.47244  0.64186     C
loop_
_geom_bond_atom_site_label_1
_geom_bond_atom_site_label_2
_geom_bond_distance
_geom_bond_site_symmetry_2
_ccdc_geom_bond_type
H1    O19    2.07990       .     S
O19   H1     2.07990       .     S
H2    N6     2.23304   1_554     S
N6    H2     2.23304   1_556     S
H4    O12    2.05613       .     S
O12   H4     2.05613       .     S
H7    O15    2.49755   1_565     S
O15   H7     2.49755   1_545     S
H8    O21    2.59025   1_455     S
O21   H8     2.59025   1_655     S
H10   O15    2.56645   1_455     S
O15   H10    2.56645   1_655     S
H14   O15    1.54303       .     S
O15   H14    1.54303       .     S
H17   O13    2.54863   1_554     S
O13   H17    2.54863   1_556     S
H17   O20    1.61076   1_554     S
O20   H17    1.61076   1_556     S
H22   O12    1.70842   1_565     S
O12   H22    1.70842   1_545     S
N0    H1     0.86426       .     S
H1    N0     0.86426       .     S
N0    H2     0.86842       .     S
H2    N0     0.86842       .     S
N0    C11    1.31053   1_565     S
C11   N0     1.31053   1_545     S
N3    H4     0.93969       .     S
H4    N3     0.93969       .     S
N3    H5     0.86451       .     S
H5    N3     0.86451       .     S
N3    C11    1.32217       .     S
C11   N3     1.32217       .     S
N6    H7     0.86773   1_455     S
H7    N6     0.86773   1_655     S
N6    H8     0.87020       .     S
H8    N6     0.87020       .     S
N6    N9     1.39595   1_565     S
N9    N6     1.39595   1_545     S
N9    H10    0.89157       .     S
H10   N9     0.89157       .     S
N9    C11    1.32506   1_556     S
C11   N9     1.32506   1_554     S
O12   C32    1.24751       .     S
C32   O12    1.24751       .     S
O13   H14    0.87699       .     S
H14   O13    0.87699       .     S
O13   C33    1.28288       .     S
C33   O13    1.28288       .     S
O15   C32    1.26417       .     S
C32   O15    1.26417       .     S
O16   H17    0.97188       .     S
H17   O16    0.97188       .     S
O16   C27    1.30024       .     S
C27   O16    1.30024       .     S
O18   C27    1.20955       .     S
C27   O18    1.20955       .     S
O19   C26    1.20619       .     S
C26   O19    1.20619       .     S
O20   C33    1.23283       .     S
C33   O20    1.23283       .     S
O21   H22    0.87780       .     S
H22   O21    0.87780       .     S
O21   C26    1.30293       .     S
C26   O21    1.30293       .     S
C23   H24    0.92992       .     S
H24   C23    0.92992       .     S
C23   C25    1.39154       .     S
C25   C23    1.39154       .     S
C23   C28    1.38933       .     S
C28   C23    1.38933       .     S
C25   C32    1.51579       .     S
C32   C25    1.51579       .     S
C25   C34    1.41072       .     S
C34   C25    1.41072       .     S
C26   C29    1.50640       .     S
C29   C26    1.50640       .     S
C27   C28    1.49450       .     S
C28   C27    1.49450       .     S
C28   C29    1.39373       .     S
C29   C28    1.39373       .     S
C29   C30    1.38582       .     S
C30   C29    1.38582       .     S
C30   H31    0.93002       .     S
H31   C30    0.93002       .     S
C30   C34    1.39511       .     S
C34   C30    1.39511       .     S
C33   C34    1.51343       .     S
C34   C33    1.51343       .     S
O19   H1     2.07990       .     S
H1    O19    2.07990       .     S
N6    H2     2.23304   1_556     S
H2    N6     2.23304   1_554     S
O12   H4     2.05613       .     S
H4    O12    2.05613       .     S
O15   H7     2.49755   1_545     S
H7    O15    2.49755   1_565     S
O21   H8     2.59025   1_655     S
H8    O21    2.59025   1_455     S
O15   H10    2.56645   1_655     S
H10   O15    2.56645   1_455     S
O15   H14    1.54303       .     S
H14   O15    1.54303       .     S
O13   H17    2.54863   1_556     S
H17   O13    2.54863   1_554     S
O20   H17    1.61076   1_556     S
H17   O20    1.61076   1_554     S
O12   H22    1.70842   1_545     S
H22   O12    1.70842   1_565     S
H1    N0     0.86426       .     S
N0    H1     0.86426       .     S
H2    N0     0.86842       .     S
N0    H2     0.86842       .     S
C11   N0     1.31053   1_545     S
N0    C11    1.31053   1_565     S
H4    N3     0.93969       .     S
N3    H4     0.93969       .     S
H5    N3     0.86451       .     S
N3    H5     0.86451       .     S
C11   N3     1.32217       .     S
N3    C11    1.32217       .     S
H7    N6     0.86773   1_655     S
N6    H7     0.86773   1_455     S
H8    N6     0.87020       .     S
N6    H8     0.87020       .     S
N9    N6     1.39595   1_545     S
N6    N9     1.39595   1_565     S
H10   N9     0.89157       .     S
N9    H10    0.89157       .     S
C11   N9     1.32506   1_554     S
N9    C11    1.32506   1_556     S
C32   O12    1.24751       .     S
O12   C32    1.24751       .     S
H14   O13    0.87699       .     S
O13   H14    0.87699       .     S
C33   O13    1.28288       .     S
O13   C33    1.28288       .     S
C32   O15    1.26417       .     S
O15   C32    1.26417       .     S
H17   O16    0.97188       .     S
O16   H17    0.97188       .     S
C27   O16    1.30024       .     S
O16   C27    1.30024       .     S
C27   O18    1.20955       .     S
O18   C27    1.20955       .     S
C26   O19    1.20619       .     S
O19   C26    1.20619       .     S
C33   O20    1.23283       .     S
O20   C33    1.23283       .     S
H22   O21    0.87780       .     S
O21   H22    0.87780       .     S
C26   O21    1.30293       .     S
O21   C26    1.30293       .     S
H24   C23    0.92992       .     S
C23   H24    0.92992       .     S
C25   C23    1.39154       .     S
C23   C25    1.39154       .     S
C28   C23    1.38933       .     S
C23   C28    1.38933       .     S
C32   C25    1.51579       .     S
C25   C32    1.51579       .     S
C34   C25    1.41072       .     S
C25   C34    1.41072       .     S
C29   C26    1.50640       .     S
C26   C29    1.50640       .     S
C28   C27    1.49450       .     S
C27   C28    1.49450       .     S
C29   C28    1.39373       .     S
C28   C29    1.39373       .     S
C30   C29    1.38582       .     S
C29   C30    1.38582       .     S
H31   C30    0.93002       .     S
C30   H31    0.93002       .     S
C34   C30    1.39511       .     S
C30   C34    1.39511       .     S
C34   C33    1.51343       .     S
C33   C34    1.51343       .     S
