data_I
_chemical_name_common  '/data/user2/wty/HOF/MOFDiff/mofdiff/data/test/2272235810'
_cell_length_a  7.21570
_cell_length_b  9.71620
_cell_length_c  9.72420
_cell_angle_alpha 89.17300
_cell_angle_beta  88.91100
_cell_angle_gamma 80.41100
_space_group_name_H-M_alt      'P 1'


loop_
_space_group_symop_operation_xyz
  'x, y, z' 

loop_
_atom_site_label
_atom_site_fract_x
_atom_site_fract_y
_atom_site_fract_z
_atom_site_type_symbol
N0      0.1928   0.8858   0.0828     N
H1       0.166    0.832    0.018     H
N2      0.0702   0.9166   0.1979     N
H3       0.973    0.967    0.162     H
H4       0.024    0.841    0.212     H
N5      0.6924   0.8061   0.0376     N
H6       0.737    0.722    0.014     H
H7       0.748    0.855     0.98     H
N8      0.4996   0.8186   0.0124     N
H9       0.448    0.792     0.94     H
N10     0.4333   0.9134   0.2274     N
H11      0.565    0.911     0.23     H
H12      0.345    0.956    0.292     H
C13     0.3774   0.8713   0.1097     C
O14     0.2334  0.58082  0.19792     O
O15     0.3102  0.18168  0.39307     O
O16      0.343  0.35783  0.22493     O
H17      0.341    0.293    0.286     H
O18     0.1888  0.90819  0.54178     O
H19      0.191   0.9925    0.567     H
O20     0.2843  0.85604  0.75587     O
O21     0.0518   0.6928  0.89721     O
O22     0.2069  0.16599  0.60554     O
O23     0.2916  0.52224  0.93874     O
H24      0.262    0.538   0.0242     H
C25     0.2464   0.6343   0.4705     C
H26    0.25289  0.70393  0.40336     H
C27     0.2554   0.4968   0.4279     C
C28     0.1774   0.6031    0.858     C
C29     0.2357   0.8215   0.6437     C
C30     0.2282    0.673   0.6077     C
C31     0.2152   0.5695   0.7087     C
C32     0.2241   0.4323   0.6676     C
H33    0.21505  0.36353  0.73517     H
C34      0.277    0.477   0.2731     C
C35     0.2528   0.2365   0.5079     C
C36     0.2458   0.3918   0.5297     C
loop_
_geom_bond_atom_site_label_1
_geom_bond_atom_site_label_2
_geom_bond_distance
_geom_bond_site_symmetry_2
_ccdc_geom_bond_type
H1    O21    2.08372   1_554     S
O21   H1     2.08372   1_556     S
H6    O21    2.49530   1_654     S
O21   H6     2.49530   1_456     S
H7    O21    2.59919   1_655     S
O21   H7     2.59919   1_455     S
H9    O20    2.18900       .     S
O20   H9     2.18900       .     S
H11   N5     2.24985       .     S
N5    H11    2.24985       .     S
H12   O15    2.38884   1_565     S
O15   H12    2.38884   1_545     S
H12   N2     2.29077       .     S
N2    H12    2.29077       .     S
H17   O15    1.53039       .     S
O15   H17    1.53039       .     S
H19   O22    1.75482   1_565     S
O22   H19    1.75482   1_545     S
H24   O14    1.74580       .     S
O14   H24    1.74580       .     S
N0    H1     0.86921       .     S
H1    N0     0.86921       .     S
N0    N2     1.41729       .     S
N2    N0     1.41729       .     S
N0    C13    1.34618       .     S
C13   N0     1.34618       .     S
N2    H3     0.86228   1_455     S
H3    N2     0.86228   1_655     S
N2    H4     0.86396       .     S
H4    N2     0.86396       .     S
N5    H6     0.85961       .     S
H6    N5     0.85961       .     S
N5    H7     0.86470   1_554     S
H7    N5     0.86470   1_556     S
N5    N8     1.40214       .     S
N8    N5     1.40214       .     S
N8    H9     0.86508   1_554     S
H9    N8     0.86508   1_556     S
N8    C13    1.32920       .     S
C13   N8     1.32920       .     S
N10   H11    0.94751       .     S
H11   N10    0.94751       .     S
N10   H12    0.93612       .     S
H12   N10    0.93612       .     S
N10   C13    1.31378       .     S
C13   N10    1.31378       .     S
O14   C34    1.23803       .     S
C34   O14    1.23803       .     S
O15   C35    1.27601       .     S
C35   O15    1.27601       .     S
O16   H17    0.86114       .     S
H17   O16    0.86114       .     S
O16   C34    1.26900       .     S
C34   O16    1.26900       .     S
O18   H19    0.86123       .     S
H19   O18    0.86123       .     S
O18   C29    1.30382       .     S
C29   O18    1.30382       .     S
O20   C29    1.22053       .     S
C29   O20    1.22053       .     S
O21   C28    1.20815       .     S
C28   O21    1.20815       .     S
O22   C35    1.23507       .     S
C35   O22    1.23507       .     S
O23   H24    0.86354   1_556     S
H24   O23    0.86354   1_554     S
O23   C28    1.30530       .     S
C28   O23    1.30530       .     S
C25   H26    0.93957       .     S
H26   C25    0.93957       .     S
C25   C27    1.39524       .     S
C27   C25    1.39524       .     S
C25   C30    1.38924       .     S
C30   C25    1.38924       .     S
C27   C34    1.52207       .     S
C34   C27    1.52207       .     S
C27   C36    1.42033       .     S
C36   C27    1.42033       .     S
C28   C31    1.50257       .     S
C31   C28    1.50257       .     S
C29   C30    1.49954       .     S
C30   C29    1.49954       .     S
C30   C31    1.40858       .     S
C31   C30    1.40858       .     S
C31   C32    1.38809       .     S
C32   C31    1.38809       .     S
C32   H33    0.93952       .     S
H33   C32    0.93952       .     S
C32   C36    1.40153       .     S
C36   C32    1.40153       .     S
C35   C36    1.51914       .     S
C36   C35    1.51914       .     S
O21   H1     2.08372   1_556     S
H1    O21    2.08372   1_554     S
O21   H6     2.49530   1_456     S
H6    O21    2.49530   1_654     S
O21   H7     2.59919   1_455     S
H7    O21    2.59919   1_655     S
O20   H9     2.18900       .     S
H9    O20    2.18900       .     S
N5    H11    2.24985       .     S
H11   N5     2.24985       .     S
O15   H12    2.38884   1_545     S
H12   O15    2.38884   1_565     S
N2    H12    2.29077       .     S
H12   N2     2.29077       .     S
O15   H17    1.53039       .     S
H17   O15    1.53039       .     S
O22   H19    1.75482   1_545     S
H19   O22    1.75482   1_565     S
O14   H24    1.74580       .     S
H24   O14    1.74580       .     S
H1    N0     0.86921       .     S
N0    H1     0.86921       .     S
N2    N0     1.41729       .     S
N0    N2     1.41729       .     S
C13   N0     1.34618       .     S
N0    C13    1.34618       .     S
H3    N2     0.86228   1_655     S
N2    H3     0.86228   1_455     S
H4    N2     0.86396       .     S
N2    H4     0.86396       .     S
H6    N5     0.85961       .     S
N5    H6     0.85961       .     S
H7    N5     0.86470   1_556     S
N5    H7     0.86470   1_554     S
N8    N5     1.40214       .     S
N5    N8     1.40214       .     S
H9    N8     0.86508   1_556     S
N8    H9     0.86508   1_554     S
C13   N8     1.32920       .     S
N8    C13    1.32920       .     S
H11   N10    0.94751       .     S
N10   H11    0.94751       .     S
H12   N10    0.93612       .     S
N10   H12    0.93612       .     S
C13   N10    1.31378       .     S
N10   C13    1.31378       .     S
C34   O14    1.23803       .     S
O14   C34    1.23803       .     S
C35   O15    1.27601       .     S
O15   C35    1.27601       .     S
H17   O16    0.86114       .     S
O16   H17    0.86114       .     S
C34   O16    1.26900       .     S
O16   C34    1.26900       .     S
H19   O18    0.86123       .     S
O18   H19    0.86123       .     S
C29   O18    1.30382       .     S
O18   C29    1.30382       .     S
C29   O20    1.22053       .     S
O20   C29    1.22053       .     S
C28   O21    1.20815       .     S
O21   C28    1.20815       .     S
C35   O22    1.23507       .     S
O22   C35    1.23507       .     S
H24   O23    0.86354   1_554     S
O23   H24    0.86354   1_556     S
C28   O23    1.30530       .     S
O23   C28    1.30530       .     S
H26   C25    0.93957       .     S
C25   H26    0.93957       .     S
C27   C25    1.39524       .     S
C25   C27    1.39524       .     S
C30   C25    1.38924       .     S
C25   C30    1.38924       .     S
C34   C27    1.52207       .     S
C27   C34    1.52207       .     S
C36   C27    1.42033       .     S
C27   C36    1.42033       .     S
C31   C28    1.50257       .     S
C28   C31    1.50257       .     S
C30   C29    1.49954       .     S
C29   C30    1.49954       .     S
C31   C30    1.40858       .     S
C30   C31    1.40858       .     S
C32   C31    1.38809       .     S
C31   C32    1.38809       .     S
H33   C32    0.93952       .     S
C32   H33    0.93952       .     S
C36   C32    1.40153       .     S
C32   C36    1.40153       .     S
C36   C35    1.51914       .     S
C35   C36    1.51914       .     S
