data_I
_chemical_name_common  '/data/user2/wty/HOF/MOFDiff/mofdiff/data/test/2272235812'
_cell_length_a  7.82670
_cell_length_b  8.71330
_cell_length_c  9.64380
_cell_angle_alpha 92.52000
_cell_angle_beta  93.61100
_cell_angle_gamma 108.40000
_space_group_name_H-M_alt      'P 1'


loop_
_space_group_symop_operation_xyz
  'x, y, z' 

loop_
_atom_site_label
_atom_site_fract_x
_atom_site_fract_y
_atom_site_fract_z
_atom_site_type_symbol
N0      0.2703   0.5766  0.06174     N
N1       0.501   0.7217   0.9381     N
N2      0.5565   0.6913   0.1694     N
C3      0.4416   0.6634   0.0572     C
H4       0.511    0.653   0.2451     H
H5        0.24    0.541   0.1419     H
H6      0.6683    0.736    0.156     H
H7       0.199    0.583    0.992     H
H8       0.428    0.711   0.8653     H
H9        0.61    0.789    0.939     H
O10    0.05805  0.21252  0.90639     O
O11    0.56031  0.90934  0.70323     O
O12    0.76659  0.07708  0.88411     O
O13    0.33212  0.56054  0.57062     O
O14    0.27374  0.49377  0.34308     O
O15    0.90647  0.35795  0.19145     O
O16    0.58569  0.80792  0.49501     O
O17     0.0449  0.17078  0.17241     O
C18     0.0569   0.2988  0.63742     C
H19    0.13761    0.369  0.70807     H
C20     0.9186   0.1669   0.6763     C
C21     0.9712   0.2618  0.24233     C
C22     0.2373     0.47  0.46273     C
C23     0.0812   0.3316  0.49877     C
C24     0.9636   0.2295  0.39441     C
C25     0.8268    0.095  0.43086     C
H26    0.74963  0.02338  0.35929     H
C27     0.9147   0.1493  0.83198     C
C28     0.6395   0.9153  0.59059     C
C29     0.7998   0.0622  0.56992     C
H30      0.419    0.641    0.541     H
H31      0.683    0.022    0.819     H
H32      0.045     0.19   0.0848     H
loop_
_geom_bond_atom_site_label_1
_geom_bond_atom_site_label_2
_geom_bond_distance
_geom_bond_site_symmetry_2
_ccdc_geom_bond_type
H4    O14    2.23068       .     S
O14   H4     2.23068       .     S
H5    O14    2.01928       .     S
O14   H5     2.01928       .     S
H8    O11    2.41112       .     S
O11   H8     2.41112       .     S
H9    O12    2.51783   1_565     S
O12   H9     2.51783   1_545     S
H30   O16    1.71635       .     S
O16   H30    1.71635       .     S
H31   O11    1.51845   1_545     S
O11   H31    1.51845   1_565     S
H32   O10    1.74597   1_554     S
O10   H32    1.74597   1_556     S
N0    C3     1.31970       .     S
C3    N0     1.31970       .     S
N0    H5     0.86475       .     S
H5    N0     0.86475       .     S
N0    H7     0.86170   1_554     S
H7    N0     0.86170   1_556     S
N1    C3     1.32774   1_556     S
C3    N1     1.32774   1_554     S
N1    H8     0.85914       .     S
H8    N1     0.85914       .     S
N1    H9     0.86865       .     S
H9    N1     0.86865       .     S
N2    C3     1.32473       .     S
C3    N2     1.32473       .     S
N2    H4     0.86619       .     S
H4    N2     0.86619       .     S
N2    H6     0.85883       .     S
H6    N2     0.85883       .     S
O10   C27    1.24532   1_455     S
C27   O10    1.24532   1_655     S
O11   C28    1.27918       .     S
C28   O11    1.27918       .     S
O12   C27    1.27797       .     S
C27   O12    1.27797       .     S
O12   H31    0.88100       .     S
H31   O12    0.88100       .     S
O13   C22    1.31021       .     S
C22   O13    1.31021       .     S
O13   H30    0.88125       .     S
H30   O13    0.88125       .     S
O14   C22    1.21690       .     S
C22   O14    1.21690       .     S
O15   C21    1.21330       .     S
C21   O15    1.21330       .     S
O16   C28    1.23649       .     S
C28   O16    1.23649       .     S
O17   C21    1.30658   1_455     S
C21   O17    1.30658   1_655     S
O17   H32    0.86852       .     S
H32   O17    0.86852       .     S
C18   H19    0.95006       .     S
H19   C18    0.95006       .     S
C18   C20    1.39168   1_455     S
C20   C18    1.39168   1_655     S
C18   C23    1.39178       .     S
C23   C18    1.39178       .     S
C20   C27    1.51709       .     S
C27   C20    1.51709       .     S
C20   C29    1.41822       .     S
C29   C20    1.41822       .     S
C21   C24    1.50681       .     S
C24   C21    1.50681       .     S
C22   C23    1.49263       .     S
C23   C22    1.49263       .     S
C23   C24    1.39254   1_455     S
C24   C23    1.39254   1_655     S
C24   C25    1.39100       .     S
C25   C24    1.39100       .     S
C25   H26    0.94989       .     S
H26   C25    0.94989       .     S
C25   C29    1.39860       .     S
C29   C25    1.39860       .     S
C28   C29    1.51404   1_565     S
C29   C28    1.51404   1_545     S
O14   H4     2.23068       .     S
H4    O14    2.23068       .     S
O14   H5     2.01928       .     S
H5    O14    2.01928       .     S
O11   H8     2.41112       .     S
H8    O11    2.41112       .     S
O12   H9     2.51783   1_545     S
H9    O12    2.51783   1_565     S
O16   H30    1.71635       .     S
H30   O16    1.71635       .     S
O11   H31    1.51845   1_565     S
H31   O11    1.51845   1_545     S
O10   H32    1.74597   1_556     S
H32   O10    1.74597   1_554     S
C3    N0     1.31970       .     S
N0    C3     1.31970       .     S
H5    N0     0.86475       .     S
N0    H5     0.86475       .     S
H7    N0     0.86170   1_556     S
N0    H7     0.86170   1_554     S
C3    N1     1.32774   1_554     S
N1    C3     1.32774   1_556     S
H8    N1     0.85914       .     S
N1    H8     0.85914       .     S
H9    N1     0.86865       .     S
N1    H9     0.86865       .     S
C3    N2     1.32473       .     S
N2    C3     1.32473       .     S
H4    N2     0.86619       .     S
N2    H4     0.86619       .     S
H6    N2     0.85883       .     S
N2    H6     0.85883       .     S
C27   O10    1.24532   1_655     S
O10   C27    1.24532   1_455     S
C28   O11    1.27918       .     S
O11   C28    1.27918       .     S
C27   O12    1.27797       .     S
O12   C27    1.27797       .     S
H31   O12    0.88100       .     S
O12   H31    0.88100       .     S
C22   O13    1.31021       .     S
O13   C22    1.31021       .     S
H30   O13    0.88125       .     S
O13   H30    0.88125       .     S
C22   O14    1.21690       .     S
O14   C22    1.21690       .     S
C21   O15    1.21330       .     S
O15   C21    1.21330       .     S
C28   O16    1.23649       .     S
O16   C28    1.23649       .     S
C21   O17    1.30658   1_655     S
O17   C21    1.30658   1_455     S
H32   O17    0.86852       .     S
O17   H32    0.86852       .     S
H19   C18    0.95006       .     S
C18   H19    0.95006       .     S
C20   C18    1.39168   1_655     S
C18   C20    1.39168   1_455     S
C23   C18    1.39178       .     S
C18   C23    1.39178       .     S
C27   C20    1.51709       .     S
C20   C27    1.51709       .     S
C29   C20    1.41822       .     S
C20   C29    1.41822       .     S
C24   C21    1.50681       .     S
C21   C24    1.50681       .     S
C23   C22    1.49263       .     S
C22   C23    1.49263       .     S
C24   C23    1.39254   1_655     S
C23   C24    1.39254   1_455     S
C25   C24    1.39100       .     S
C24   C25    1.39100       .     S
H26   C25    0.94989       .     S
C25   H26    0.94989       .     S
C29   C25    1.39860       .     S
C25   C29    1.39860       .     S
C29   C28    1.51404   1_545     S
C28   C29    1.51404   1_565     S
