data_I
_chemical_name_common  '/data/user2/wty/HOF/MOFDiff/mofdiff/data/test/2272235811'
_cell_length_a  3.78730
_cell_length_b 20.09800
_cell_length_c 10.38200
_cell_angle_alpha 90.00000
_cell_angle_beta  100.40500
_cell_angle_gamma 90.00000
_space_group_name_H-M_alt      'P 1'


loop_
_space_group_symop_operation_xyz
  'x, y, z' 

loop_
_atom_site_label
_atom_site_fract_x
_atom_site_fract_y
_atom_site_fract_z
_atom_site_type_symbol
N0      0.9139  0.69494  0.45394     N
H1        0.96   0.7376    0.457     H
H2        0.77   0.6754   0.3911     H
N3      0.9776  0.59358   0.5574     N
H4       0.084   0.5663    0.616     H
H5       0.814   0.5766    0.498     H
N6      0.2719  0.68562  0.65482     N
H7       0.355   0.6641   0.7255     H
H8       0.329   0.7272    0.649     H
C9      0.0563  0.65764  0.55514     C
O10     0.5081  0.81926  0.60817     O
H11      0.652   0.8415    0.668     H
O12     0.1465  0.83475  0.42252     O
O13     0.9273  0.01806  0.18072     O
O14     0.0976  0.11939  0.23082     O
C15     0.2937  0.96441  0.40426     C
H16     0.1494   0.9394   0.3369     H
C17     0.4586  0.93033  0.51563     C
C18     0.3248  0.03248  0.38427     C
C19     0.1026  0.05722  0.25578     C
C20     0.3637  0.85661   0.5138     C
loop_
_geom_bond_atom_site_label_1
_geom_bond_atom_site_label_2
_geom_bond_distance
_geom_bond_site_symmetry_2
_ccdc_geom_bond_type
H1    O12    2.12855   1_655     S
O12   H1     2.12855   1_455     S
H8    O10    2.04131       .     S
O10   H8     2.04131       .     S
N0    H1     0.87441       .     S
H1    N0     0.87441       .     S
N0    H2     0.86513       .     S
H2    N0     0.86513       .     S
N0    C9     1.32365   1_655     S
C9    N0     1.32365   1_455     S
N3    H4     0.86288   1_655     S
H4    N3     0.86288   1_455     S
N3    H5     0.86177       .     S
H5    N3     0.86177       .     S
N3    C9     1.32269   1_655     S
C9    N3     1.32269   1_455     S
N6    H7     0.86091       .     S
H7    N6     0.86091       .     S
N6    H8     0.86804       .     S
H8    N6     0.86804       .     S
N6    C9     1.32239       .     S
C9    N6     1.32239       .     S
O10   H11    0.87199       .     S
H11   O10    0.87199       .     S
O10   C20    1.27630       .     S
C20   O10    1.27630       .     S
O12   C20    1.21909       .     S
C20   O12    1.21909       .     S
O13   C19    1.21680   1_655     S
C19   O13    1.21680   1_455     S
O14   C19    1.27553       .     S
C19   O14    1.27553       .     S
C15   H16    0.94992       .     S
H16   C15    0.94992       .     S
C15   C17    1.39113       .     S
C17   C15    1.39113       .     S
C15   C18    1.39190   1_565     S
C18   C15    1.39190   1_545     S
C17   C20    1.52390       .     S
C20   C17    1.52390       .     S
C18   C19    1.52625       .     S
C19   C18    1.52625       .     S
O12   H1     2.12855   1_455     S
H1    O12    2.12855   1_655     S
O10   H8     2.04131       .     S
H8    O10    2.04131       .     S
H1    N0     0.87441       .     S
N0    H1     0.87441       .     S
H2    N0     0.86513       .     S
N0    H2     0.86513       .     S
C9    N0     1.32365   1_455     S
N0    C9     1.32365   1_655     S
H4    N3     0.86288   1_455     S
N3    H4     0.86288   1_655     S
H5    N3     0.86177       .     S
N3    H5     0.86177       .     S
C9    N3     1.32269   1_455     S
N3    C9     1.32269   1_655     S
H7    N6     0.86091       .     S
N6    H7     0.86091       .     S
H8    N6     0.86804       .     S
N6    H8     0.86804       .     S
C9    N6     1.32239       .     S
N6    C9     1.32239       .     S
H11   O10    0.87199       .     S
O10   H11    0.87199       .     S
C20   O10    1.27630       .     S
O10   C20    1.27630       .     S
C20   O12    1.21909       .     S
O12   C20    1.21909       .     S
C19   O13    1.21680   1_455     S
O13   C19    1.21680   1_655     S
C19   O14    1.27553       .     S
O14   C19    1.27553       .     S
H16   C15    0.94992       .     S
C15   H16    0.94992       .     S
C17   C15    1.39113       .     S
C15   C17    1.39113       .     S
C18   C15    1.39190   1_545     S
C15   C18    1.39190   1_565     S
C20   C17    1.52390       .     S
C17   C20    1.52390       .     S
C19   C18    1.52625       .     S
C18   C19    1.52625       .     S
