data_I
_chemical_name_common  '/data/user2/wty/HOF/MOFDiff/mofdiff/data/test/2282231664'
_cell_length_a 39.40000
_cell_length_b 19.70000
_cell_length_c 16.27400
_cell_angle_alpha 90.00000
_cell_angle_beta  100.53000
_cell_angle_gamma 90.00000
_space_group_name_H-M_alt      'P 1'


loop_
_space_group_symop_operation_xyz
  'x, y, z' 

loop_
_atom_site_label
_atom_site_fract_x
_atom_site_fract_y
_atom_site_fract_z
_atom_site_type_symbol
Fe0    0.50145  0.58707  0.35881    Fe
N1     0.51603  0.48848  0.39578     N
N2     0.45159  0.55846   0.3683     N
N3     0.55225   0.6158   0.4037     N
N4      0.4877  0.68618  0.38185     N
C5      0.5493  0.46337   0.4175     C
C6     0.51494  0.37332   0.4146     C
H7      0.5065  0.32949  0.41772     H
C8     0.54802  0.39178   0.4304     C
H9     0.56684  0.36326  0.44687     H
C10     0.4945  0.43374   0.3917     C
C11    0.43895   0.4941   0.3533     C
C12     0.4588  0.43487   0.3663     C
C13    0.57944  0.50222    0.419     C
O14    0.39902   0.1473   0.2175     O
H15    0.39109  0.10871   0.2135     H
C16    0.40218    0.497   0.3257     C
H17    0.38749  0.46046     0.31     H
C18    0.64067   0.4826   0.4915     C
H19    0.63755  0.51426  0.53192     H
C20    0.50943  0.74157   0.3936     C
C21    0.58021  0.57303   0.4085     C
C22    0.61825  0.41518   0.3721     C
H23    0.59974  0.40132  0.33166     H
C24     0.6134  0.46622   0.4282     C
C25     0.5645  0.68034   0.3966     C
C26    0.44081  0.36839    0.345     C
C27    0.54481  0.73981   0.3935     C
C28    0.44982   0.3275   0.2831     C
H29    0.46756  0.34129  0.25632     H
C30    0.42299  0.60132   0.3533     C
C31    0.41437   0.3461   0.3854     C
H32    0.40778  0.37244  0.42723     H
C33    0.56311  0.80675   0.3894     C
C34    0.39063  0.70805   0.3573     C
O35    0.71529   0.3293   0.3885     O
H36    0.73559  0.32513  0.38412     H
C37    0.61009   0.6116   0.4014     C
H38    0.63206  0.59449  0.40101     H
C39    0.42475   0.6722   0.3645     C
C40     0.6724   0.4524    0.495     C
H41    0.69069  0.46531  0.53662     H
C42    0.45473    0.711    0.381     C
C43    0.48958  0.80102   0.4027     C
H44    0.49818  0.84492  0.41123     H
C45    0.65037   0.3846   0.3757     C
H46    0.65353  0.35195   0.3365     H
O47    0.37151   0.1532   0.3243     O
C48    0.36811   0.6919   0.4102     C
H49    0.37441  0.65861  0.45067     H
C50    0.45691   0.7829   0.3969     C
H51    0.43863  0.81144  0.40209     H
C52    0.43349   0.2678   0.2605     C
H53    0.43964  0.24228  0.21741     H
C54    0.40795   0.2448   0.3008     C
C55    0.39305   0.5629    0.327     C
H56    0.37073  0.57993   0.3128     H
C57    0.55475   0.8469   0.3195     C
H58    0.53716  0.83345   0.2764     H
C59    0.67771   0.4036   0.4385     C
C60    0.60066   0.6781   0.3952     C
H61    0.61498  0.71494    0.391     H
C62    0.39807    0.285   0.3631     C
H63    0.38039  0.27053  0.38971     H
O64    0.27302    0.783   0.3853     O
C65    0.38072   0.7562   0.2968     C
H66    0.39539  0.76768  0.26027     H
C67    0.33683   0.7233   0.4048     C
H68     0.3225  0.71247  0.44242     H
C69    0.58869   0.8273    0.451     C
H70    0.59455  0.80096  0.49885     H
C71    0.32664   0.7711   0.3436     C
C72    0.39038   0.1773   0.2818     C
O73    0.73679   0.3935   0.4967     O
C74    0.34863    0.788     0.29     C
H75    0.34206  0.82075  0.24903     H
C76    0.57227   0.9074   0.3124     C
H77    0.56618  0.93435  0.26511     H
O78    0.61206   0.0238   0.2984     O
C79    0.71279   0.3732   0.4421     C
C80    0.60654   0.8878   0.4439     C
H81    0.62416  0.90066  0.48727     H
C82    0.59891   0.9277   0.3763     C
O83    0.28536   0.8544    0.293     O
H84    0.27959  0.84162  0.24451     H
C85    0.29249   0.8056   0.3382     C
C86     0.6171   0.9941    0.367     C
O87     0.6357   0.0155   0.4316     O
H88    0.65587  0.00623  0.43079     H
O89        0.5  0.58564     0.25     O
loop_
_geom_bond_atom_site_label_1
_geom_bond_atom_site_label_2
_geom_bond_distance
_geom_bond_site_symmetry_2
_ccdc_geom_bond_type
Fe0   N1     2.08276       .     S
N1    Fe0    2.08276       .     S
Fe0   N2     2.07644       .     S
N2    Fe0    2.07644       .     S
Fe0   N3     2.07983       .     S
N3    Fe0    2.07983       .     S
Fe0   N4     2.07857       .     S
N4    Fe0    2.07857       .     S
Fe0   O89    1.76145       .     S
O89   Fe0    1.76145       .     S
N1    C5     1.38513       .     S
C5    N1     1.38513       .     S
N1    C10    1.36613       .     S
C10   N1     1.36613       .     S
N2    C11    1.36774       .     S
C11   N2     1.36774       .     S
N2    C30    1.39346       .     S
C30   N2     1.39346       .     S
N3    C21    1.37773       .     S
C21   N3     1.37773       .     S
N3    C25    1.37231       .     S
C25   N3     1.37231       .     S
N4    C20    1.37856       .     S
C20   N4     1.37856       .     S
N4    C42    1.38569       .     S
C42   N4     1.38569       .     S
C5    C8     1.42811       .     S
C8    C5     1.42811       .     S
C5    C13    1.40924       .     S
C13   C5     1.40924       .     S
C6    H7     0.92999       .     S
H7    C6     0.92999       .     S
C6    C8     1.33214       .     S
C8    C6     1.33214       .     S
C6    C10    1.44724       .     S
C10   C6     1.44724       .     S
C8    H9     0.92989       .     S
H9    C8     0.92989       .     S
C10   C12    1.39188       .     S
C12   C10    1.39188       .     S
C11   C12    1.39909       .     S
C12   C11    1.39909       .     S
C11   C16    1.43736       .     S
C16   C11    1.43736       .     S
C12   C26    1.49932       .     S
C26   C12    1.49932       .     S
C13   C21    1.40639       .     S
C21   C13    1.40639       .     S
C13   C24    1.49749       .     S
C24   C13    1.49749       .     S
O14   H15    0.81998       .     S
H15   O14    0.81998       .     S
O14   C72    1.30014       .     S
C72   O14    1.30014       .     S
C16   H17    0.92973       .     S
H17   C16    0.92973       .     S
C16   C55    1.34834       .     S
C55   C16    1.34834       .     S
C18   H19    0.93079       .     S
H19   C18    0.93079       .     S
C18   C24    1.38391       .     S
C24   C18    1.38391       .     S
C18   C40    1.37625       .     S
C40   C18    1.37625       .     S
C20   C27    1.39470       .     S
C27   C20    1.39470       .     S
C20   C43    1.43093       .     S
C43   C20    1.43093       .     S
C21   C37    1.42351       .     S
C37   C21    1.42351       .     S
C22   H23    0.92958       .     S
H23   C22    0.92958       .     S
C22   C24    1.39456       .     S
C24   C22    1.39456       .     S
C22   C45    1.39313       .     S
C45   C22    1.39313       .     S
C25   C27    1.40094       .     S
C27   C25    1.40094       .     S
C25   C60    1.42973       .     S
C60   C25    1.42973       .     S
C26   C28    1.38578       .     S
C28   C26    1.38578       .     S
C26   C31    1.40023       .     S
C31   C26    1.40023       .     S
C27   C33    1.51027       .     S
C33   C27    1.51027       .     S
C28   H29    0.92931       .     S
H29   C28    0.92931       .     S
C28   C52    1.35865       .     S
C52   C28    1.35865       .     S
C30   C39    1.40825       .     S
C39   C30    1.40825       .     S
C30   C55    1.40109       .     S
C55   C30    1.40109       .     S
C31   H32    0.92988       .     S
H32   C31    0.92988       .     S
C31   C62    1.38123       .     S
C62   C31    1.38123       .     S
C33   C57    1.37520       .     S
C57   C33    1.37520       .     S
C33   C69    1.34734       .     S
C69   C33    1.34734       .     S
C34   C39    1.50404       .     S
C39   C34    1.50404       .     S
C34   C48    1.38161       .     S
C48   C34    1.38161       .     S
C34   C65    1.37153       .     S
C65   C34    1.37153       .     S
O35   H36    0.81999       .     S
H36   O35    0.81999       .     S
O35   C79    1.24496       .     S
C79   O35    1.24496       .     S
C37   H38    0.93003       .     S
H38   C37    0.93003       .     S
C37   C60    1.36042       .     S
C60   C37    1.36042       .     S
C39   C42    1.39129       .     S
C42   C39    1.39129       .     S
C40   H41    0.92971       .     S
H41   C40    0.92971       .     S
C40   C59    1.37249       .     S
C59   C40    1.37249       .     S
C42   C50    1.43961       .     S
C50   C42    1.43961       .     S
C43   H44    0.92996       .     S
H44   C43    0.92996       .     S
C43   C50    1.32242       .     S
C50   C43    1.32242       .     S
C45   H46    0.93017       .     S
H46   C45    0.93017       .     S
C45   C59    1.39376       .     S
C59   C45    1.39376       .     S
O47   C72    1.20187       .     S
C72   O47    1.20187       .     S
C48   H49    0.93044       .     S
H49   C48    0.93044       .     S
C48   C67    1.36736       .     S
C67   C48    1.36736       .     S
C50   H51    0.92963       .     S
H51   C50    0.92963       .     S
C52   H53    0.93022       .     S
H53   C52    0.93022       .     S
C52   C54    1.37449       .     S
C54   C52    1.37449       .     S
C54   C62    1.39674       .     S
C62   C54    1.39674       .     S
C54   C72    1.50494       .     S
C72   C54    1.50494       .     S
C55   H56    0.93007       .     S
H56   C55    0.93007       .     S
C57   H58    0.92996       .     S
H58   C57    0.92996       .     S
C57   C76    1.39266       .     S
C76   C57    1.39266       .     S
C59   C79    1.49761       .     S
C79   C59    1.49761       .     S
C60   H61    0.92941       .     S
H61   C60    0.92941       .     S
C62   H63    0.92967       .     S
H63   C62    0.92967       .     S
O64   C85    1.26061       .     S
C85   O64    1.26061       .     S
C65   H66    0.92964       .     S
H66   C65    0.92964       .     S
C65   C74    1.39719       .     S
C74   C65    1.39719       .     S
C67   H68    0.93030       .     S
H68   C67    0.93030       .     S
C67   C71    1.37612       .     S
C71   C67    1.37612       .     S
C69   H70    0.92911       .     S
H70   C69    0.92911       .     S
C69   C80    1.39935       .     S
C80   C69    1.39935       .     S
C71   C74    1.37790       .     S
C74   C71    1.37790       .     S
C71   C85    1.49560       .     S
C85   C71    1.49560       .     S
O73   C79    1.23957       .     S
C79   O73    1.23957       .     S
C74   H75    0.92991       .     S
H75   C74    0.92991       .     S
C76   H77    0.92964       .     S
H77   C76    0.92964       .     S
C76   C82    1.39431       .     S
C82   C76    1.39431       .     S
O78   C86    1.24381   1_545     S
C86   O78    1.24382   1_565     S
C80   H81    0.93016       .     S
H81   C80    0.93016       .     S
C80   C82    1.34075       .     S
C82   C80    1.34075       .     S
C82   C86    1.51237       .     S
C86   C82    1.51237       .     S
O83   H84    0.81989       .     S
H84   O83    0.81989       .     S
O83   C85    1.21189       .     S
C85   O83    1.21189       .     S
C86   O87    1.24033   1_565     S
O87   C86    1.24033   1_545     S
O87   H88    0.81786       .     S
H88   O87    0.81786       .     S
N1    Fe0    2.08276       .     S
Fe0   N1     2.08276       .     S
N2    Fe0    2.07644       .     S
Fe0   N2     2.07644       .     S
N3    Fe0    2.07983       .     S
Fe0   N3     2.07983       .     S
N4    Fe0    2.07857       .     S
Fe0   N4     2.07857       .     S
O89   Fe0    1.76145       .     S
Fe0   O89    1.76145       .     S
C5    N1     1.38513       .     S
N1    C5     1.38513       .     S
C10   N1     1.36613       .     S
N1    C10    1.36613       .     S
C11   N2     1.36774       .     S
N2    C11    1.36774       .     S
C30   N2     1.39346       .     S
N2    C30    1.39346       .     S
C21   N3     1.37773       .     S
N3    C21    1.37773       .     S
C25   N3     1.37231       .     S
N3    C25    1.37231       .     S
C20   N4     1.37856       .     S
N4    C20    1.37856       .     S
C42   N4     1.38569       .     S
N4    C42    1.38569       .     S
C8    C5     1.42811       .     S
C5    C8     1.42811       .     S
C13   C5     1.40924       .     S
C5    C13    1.40924       .     S
H7    C6     0.92999       .     S
C6    H7     0.92999       .     S
C8    C6     1.33214       .     S
C6    C8     1.33214       .     S
C10   C6     1.44724       .     S
C6    C10    1.44724       .     S
H9    C8     0.92989       .     S
C8    H9     0.92989       .     S
C12   C10    1.39188       .     S
C10   C12    1.39188       .     S
C12   C11    1.39909       .     S
C11   C12    1.39909       .     S
C16   C11    1.43736       .     S
C11   C16    1.43736       .     S
C26   C12    1.49932       .     S
C12   C26    1.49932       .     S
C21   C13    1.40639       .     S
C13   C21    1.40639       .     S
C24   C13    1.49749       .     S
C13   C24    1.49749       .     S
H15   O14    0.81998       .     S
O14   H15    0.81998       .     S
C72   O14    1.30014       .     S
O14   C72    1.30014       .     S
H17   C16    0.92973       .     S
C16   H17    0.92973       .     S
C55   C16    1.34834       .     S
C16   C55    1.34834       .     S
H19   C18    0.93079       .     S
C18   H19    0.93079       .     S
C24   C18    1.38391       .     S
C18   C24    1.38391       .     S
C40   C18    1.37625       .     S
C18   C40    1.37625       .     S
C27   C20    1.39470       .     S
C20   C27    1.39470       .     S
C43   C20    1.43093       .     S
C20   C43    1.43093       .     S
C37   C21    1.42351       .     S
C21   C37    1.42351       .     S
H23   C22    0.92958       .     S
C22   H23    0.92958       .     S
C24   C22    1.39456       .     S
C22   C24    1.39456       .     S
C45   C22    1.39313       .     S
C22   C45    1.39313       .     S
C27   C25    1.40094       .     S
C25   C27    1.40094       .     S
C60   C25    1.42973       .     S
C25   C60    1.42973       .     S
C28   C26    1.38578       .     S
C26   C28    1.38578       .     S
C31   C26    1.40023       .     S
C26   C31    1.40023       .     S
C33   C27    1.51027       .     S
C27   C33    1.51027       .     S
H29   C28    0.92931       .     S
C28   H29    0.92931       .     S
C52   C28    1.35865       .     S
C28   C52    1.35865       .     S
C39   C30    1.40825       .     S
C30   C39    1.40825       .     S
C55   C30    1.40109       .     S
C30   C55    1.40109       .     S
H32   C31    0.92988       .     S
C31   H32    0.92988       .     S
C62   C31    1.38123       .     S
C31   C62    1.38123       .     S
C57   C33    1.37520       .     S
C33   C57    1.37520       .     S
C69   C33    1.34734       .     S
C33   C69    1.34734       .     S
C39   C34    1.50404       .     S
C34   C39    1.50404       .     S
C48   C34    1.38161       .     S
C34   C48    1.38161       .     S
C65   C34    1.37153       .     S
C34   C65    1.37153       .     S
H36   O35    0.81999       .     S
O35   H36    0.81999       .     S
C79   O35    1.24496       .     S
O35   C79    1.24496       .     S
H38   C37    0.93003       .     S
C37   H38    0.93003       .     S
C60   C37    1.36042       .     S
C37   C60    1.36042       .     S
C42   C39    1.39129       .     S
C39   C42    1.39129       .     S
H41   C40    0.92971       .     S
C40   H41    0.92971       .     S
C59   C40    1.37249       .     S
C40   C59    1.37249       .     S
C50   C42    1.43961       .     S
C42   C50    1.43961       .     S
H44   C43    0.92996       .     S
C43   H44    0.92996       .     S
C50   C43    1.32242       .     S
C43   C50    1.32242       .     S
H46   C45    0.93017       .     S
C45   H46    0.93017       .     S
C59   C45    1.39376       .     S
C45   C59    1.39376       .     S
C72   O47    1.20187       .     S
O47   C72    1.20187       .     S
H49   C48    0.93044       .     S
C48   H49    0.93044       .     S
C67   C48    1.36736       .     S
C48   C67    1.36736       .     S
H51   C50    0.92963       .     S
C50   H51    0.92963       .     S
H53   C52    0.93022       .     S
C52   H53    0.93022       .     S
C54   C52    1.37449       .     S
C52   C54    1.37449       .     S
C62   C54    1.39674       .     S
C54   C62    1.39674       .     S
C72   C54    1.50494       .     S
C54   C72    1.50494       .     S
H56   C55    0.93007       .     S
C55   H56    0.93007       .     S
H58   C57    0.92996       .     S
C57   H58    0.92996       .     S
C76   C57    1.39266       .     S
C57   C76    1.39266       .     S
C79   C59    1.49761       .     S
C59   C79    1.49761       .     S
H61   C60    0.92941       .     S
C60   H61    0.92941       .     S
H63   C62    0.92967       .     S
C62   H63    0.92967       .     S
C85   O64    1.26061       .     S
O64   C85    1.26061       .     S
H66   C65    0.92964       .     S
C65   H66    0.92964       .     S
C74   C65    1.39719       .     S
C65   C74    1.39719       .     S
H68   C67    0.93030       .     S
C67   H68    0.93030       .     S
C71   C67    1.37612       .     S
C67   C71    1.37612       .     S
H70   C69    0.92911       .     S
C69   H70    0.92911       .     S
C80   C69    1.39935       .     S
C69   C80    1.39935       .     S
C74   C71    1.37790       .     S
C71   C74    1.37790       .     S
C85   C71    1.49560       .     S
C71   C85    1.49560       .     S
C79   O73    1.23957       .     S
O73   C79    1.23957       .     S
H75   C74    0.92991       .     S
C74   H75    0.92991       .     S
H77   C76    0.92964       .     S
C76   H77    0.92964       .     S
C82   C76    1.39431       .     S
C76   C82    1.39431       .     S
C86   O78    1.24382   1_565     S
O78   C86    1.24381   1_545     S
H81   C80    0.93016       .     S
C80   H81    0.93016       .     S
C82   C80    1.34075       .     S
C80   C82    1.34075       .     S
C86   C82    1.51237       .     S
C82   C86    1.51237       .     S
H84   O83    0.81989       .     S
O83   H84    0.81989       .     S
C85   O83    1.21189       .     S
O83   C85    1.21189       .     S
O87   C86    1.24033   1_545     S
C86   O87    1.24033   1_565     S
H88   O87    0.81786       .     S
O87   H88    0.81786       .     S
