data_I
_chemical_name_common  '/data/user2/wty/HOF/MOFDiff/mofdiff/data/test/2302240104'
_cell_length_a 24.07380
_cell_length_b 11.07850
_cell_length_c 28.43290
_cell_angle_alpha 90.00000
_cell_angle_beta  92.19700
_cell_angle_gamma 90.00000
_space_group_name_H-M_alt      'P 1'


loop_
_space_group_symop_operation_xyz
  'x, y, z' 

loop_
_atom_site_label
_atom_site_fract_x
_atom_site_fract_y
_atom_site_fract_z
_atom_site_type_symbol
O0     0.28801  0.35986  0.99781     O
O1     0.21776  0.45304  0.02562     O
N2     0.25696  0.38343  0.02986     N
O3     0.01096  0.85106  0.45831     O
O4     0.65887  0.68986  0.24028     O
O5     0.69153  0.51887  0.26387     O
O6     0.46453  0.10668  0.64977     O
O7     0.04184  0.88599  0.52893     O
N8     0.65428  0.59262  0.26007     N
N9     0.04275  0.90177  0.48649     N
N10    0.45789  0.01082  0.62915     N
C11    0.36622  0.34421  0.34225     C
C12    0.28695  0.37683  0.38481     C
C13    0.30397  0.22347  0.24973     C
H14     0.2889   0.3027   0.2502     H
C15    0.32523  0.17106  0.29061     C
C16    0.37048  0.02463  0.33688     C
C17    0.36381  0.12454  0.36592     C
C18     0.3385  0.43008  0.36872     C
C19    0.33332  0.22642  0.33947     C
C20    0.41801  0.36765  0.32512     C
H21     0.4364   0.3085   0.3072     H
C22    0.44324  0.47996  0.33453     C
C23    0.49869  0.50846  0.31649     C
C24    0.34669  0.05342  0.29022     C
C25    0.20259  0.22556  0.41367     C
C26    0.42191   0.0151  0.48227     C
C27    0.28173  0.25995  0.36649     C
O28    0.46009  0.91278   0.6489     O
C29    0.38114  0.12269  0.41257     C
H30     0.3764   0.1919   0.4317     H
C31    0.26767  0.32484  0.07548     C
C32    0.30482  0.15867  0.20746     C
C33     0.4058  0.01831  0.43166     C
C34    0.23928  0.18522  0.37976     C
H35     0.2349   0.1073   0.3661     H
C36    0.28981  0.21653  0.16184     C
C37    0.16103  0.14171  0.43267     C
C38    0.41277  0.91847  0.40209     C
H39     0.4296   0.8473   0.4147     H
C40    0.24803  0.30309  0.15641     C
H41     0.2271   0.3252   0.1827     H
C42    0.24934  0.41925  0.41689     C
H43      0.252   0.4994   0.4286     H
C44    0.53679  0.41748  0.30671     C
H45     0.5272   0.3357   0.3123     H
C46    0.39582   0.9208  0.35509     C
H47     0.4014   0.8527   0.3355     H
C48    0.58801  0.44401  0.28907     C
H49      0.614   0.3817   0.2833     H
C50    0.34429  0.98599  0.24907     C
H51     0.3568   0.9046   0.2491     H
C52    0.23662  0.35725  0.11327     C
H53     0.2079   0.4157   0.1097     H
C54    0.60073  0.56337  0.28005     C
C55    0.20806   0.3428  0.43134     C
H56     0.1828   0.3705   0.4538     H
C57    0.41484  0.56481  0.36113     C
H58     0.4319   0.6406   0.3678     H
C59    0.43784  0.12045   0.5062     C
H60     0.4409   0.1936   0.4891     H
C61    0.36285  0.54172  0.37801     C
H62     0.3441    0.601   0.3956     H
C63    0.42005   0.9078  0.50791     C
H64     0.4096    0.835   0.4923     H
C65    0.43316  0.90589  0.55569     C
H66      0.433   0.8322   0.5728     H
C67    0.15184  0.13793  0.48071     C
H68     0.1722   0.1904   0.5014     H
C69    0.56473  0.65565  0.28971     C
H70     0.5745   0.7372   0.2838     H
C71    0.32351  0.03889  0.20812     C
H72     0.3218   0.9932   0.1798     H
C73    0.51413  0.62768  0.30822     C
H74     0.4893    0.691   0.3155     H
C75    0.44927  0.12074  0.55413     C
H76     0.4588   0.1934   0.5702     H
C77    0.30898  0.23932  0.07925     C
H78     0.3296   0.2177   0.0527     H
C79    0.31973  0.18584  0.12229     C
H80     0.3482   0.1266   0.1253     H
C81    0.44647  0.01294  0.57807     C
C82    0.08408  0.98498  0.46824     C
C83    0.11361  0.05933  0.49884     C
H84     0.1078   0.0566   0.5317     H
C85    0.13132  0.06255  0.40331     C
H86      0.138   0.0619   0.3706     H
C87    0.09232  0.98484  0.42081     C
H88     0.0716   0.9323   0.4004     H
O89     0.5247   0.1625  0.25092     O
H90     0.5456    0.102   0.2496     H
H91     0.4593   0.0693   0.2338     H
C92     0.4741   0.1273   0.2552     C
H93     0.4524   0.1822   0.2363     H
H94     0.4652    0.135   0.2876     H
C95     0.4863   0.0404   0.2569     C
H96     0.4769   0.0688   0.2875     H
H97     0.5224   0.0696   0.2495     H
H98     0.4663   0.0455   0.2449     H
O99     0.4864   0.9112   0.2554     O
H100    0.5051   0.8878   0.2328     H
loop_
_geom_bond_atom_site_label_1
_geom_bond_atom_site_label_2
_geom_bond_distance
_geom_bond_site_symmetry_2
_ccdc_geom_bond_type
O0    N2     1.22865   1_556     S
N2    O0     1.22865   1_554     S
O1    N2     1.22110       .     S
N2    O1     1.22110       .     S
N2    C31    1.46446       .     S
C31   N2     1.46446       .     S
O3    N9     1.22322       .     S
N9    O3     1.22322       .     S
O4    N8     1.22234       .     S
N8    O4     1.22234       .     S
O5    N8     1.21489       .     S
N8    O5     1.21489       .     S
O6    N10    1.22062       .     S
N10   O6     1.22062       .     S
O7    N9     1.22032       .     S
N9    O7     1.22032       .     S
N8    C54    1.46485       .     S
C54   N8     1.46485       .     S
N9    C82    1.46581       .     S
C82   N9     1.46581       .     S
N10   O28    1.22293   1_545     S
O28   N10    1.22293   1_565     S
N10   C81    1.46794       .     S
C81   N10    1.46794       .     S
C11   C18    1.39831       .     S
C18   C11    1.39831       .     S
C11   C19    1.52696       .     S
C19   C11    1.52696       .     S
C11   C20    1.38046       .     S
C20   C11    1.38046       .     S
C12   C18    1.46319       .     S
C18   C12    1.46319       .     S
C12   C27    1.39955       .     S
C27   C12    1.39955       .     S
C12   C42    1.39138       .     S
C42   C12    1.39138       .     S
C13   H14    0.95006       .     S
H14   C13    0.95006       .     S
C13   C15    1.38003       .     S
C15   C13    1.38003       .     S
C13   C32    1.40076       .     S
C32   C13    1.40076       .     S
C15   C19    1.52424       .     S
C19   C15    1.52424       .     S
C15   C24    1.40214       .     S
C24   C15    1.40214       .     S
C16   C17    1.39386       .     S
C17   C16    1.39386       .     S
C16   C24    1.45998       .     S
C24   C16    1.45998       .     S
C16   C46    1.39253   1_545     S
C46   C16    1.39253   1_565     S
C17   C19    1.52838       .     S
C19   C17    1.52838       .     S
C17   C29    1.37527       .     S
C29   C17    1.37527       .     S
C18   C61    1.38968       .     S
C61   C18    1.38968       .     S
C19   C27    1.53096       .     S
C27   C19    1.53096       .     S
C20   H21    0.94990       .     S
H21   C20    0.94990       .     S
C20   C22    1.40575       .     S
C22   C20    1.40575       .     S
C22   C23    1.48230       .     S
C23   C22    1.48230       .     S
C22   C57    1.40097       .     S
C57   C22    1.40097       .     S
C23   C44    1.39788       .     S
C44   C23    1.39788       .     S
C23   C73    1.39449       .     S
C73   C23    1.39449       .     S
C24   C50    1.38749   1_545     S
C50   C24    1.38749   1_565     S
C25   C34    1.40527       .     S
C34   C25    1.40527       .     S
C25   C37    1.48230       .     S
C37   C25    1.48230       .     S
C25   C55    1.39702       .     S
C55   C25    1.39702       .     S
C26   C33    1.47634       .     S
C33   C26    1.47634       .     S
C26   C59    1.39720       .     S
C59   C26    1.39720       .     S
C26   C63    1.39608   1_545     S
C63   C26    1.39608   1_565     S
C27   C34    1.37901       .     S
C34   C27    1.37901       .     S
C29   H30    0.94949       .     S
H30   C29    0.94949       .     S
C29   C33    1.39984       .     S
C33   C29    1.39984       .     S
C31   C52    1.37976       .     S
C52   C31    1.37976       .     S
C31   C77    1.37476       .     S
C77   C31    1.37476       .     S
C32   C36    1.47919       .     S
C36   C32    1.47919       .     S
C32   C71    1.40108       .     S
C71   C32    1.40108       .     S
C33   C38    1.40330   1_545     S
C38   C33    1.40330   1_565     S
C34   H35    0.95079       .     S
H35   C34    0.95079       .     S
C36   C40    1.39398       .     S
C40   C36    1.39398       .     S
C36   C79    1.40038       .     S
C79   C36    1.40038       .     S
C37   C67    1.39269       .     S
C67   C37    1.39269       .     S
C37   C85    1.38987       .     S
C85   C37    1.38987       .     S
C38   H39    0.95039       .     S
H39   C38    0.95039       .     S
C38   C46    1.38246       .     S
C46   C38    1.38246       .     S
C40   H41    0.94948       .     S
H41   C40    0.94948       .     S
C40   C52    1.38353       .     S
C52   C40    1.38353       .     S
C42   H43    0.94961       .     S
H43   C42    0.94961       .     S
C42   C55    1.38022       .     S
C55   C42    1.38022       .     S
C44   H45    0.94985       .     S
H45   C44    0.94985       .     S
C44   C48    1.38051       .     S
C48   C44    1.38051       .     S
C46   H47    0.95038       .     S
H47   C46    0.95038       .     S
C48   H49    0.95014       .     S
H49   C48    0.95014       .     S
C48   C54    1.38352       .     S
C54   C48    1.38352       .     S
C50   H51    0.95063       .     S
H51   C50    0.95063       .     S
C50   C71    1.38011   1_565     S
C71   C50    1.38011   1_545     S
C52   H53    0.94987       .     S
H53   C52    0.94987       .     S
C54   C69    1.37475       .     S
C69   C54    1.37475       .     S
C55   H56    0.94950       .     S
H56   C55    0.94950       .     S
C57   H58    0.95061       .     S
H58   C57    0.95061       .     S
C57   C61    1.38143       .     S
C61   C57    1.38143       .     S
C59   H60    0.94937       .     S
H60   C59    0.94937       .     S
C59   C75    1.37992       .     S
C75   C59    1.37992       .     S
C61   H62    0.94999       .     S
H62   C61    0.94999       .     S
C63   H64    0.94983       .     S
H64   C63    0.94983       .     S
C63   C65    1.38303       .     S
C65   C63    1.38303       .     S
C65   H66    0.95042       .     S
H66   C65    0.95042       .     S
C65   C81    1.37784   1_565     S
C81   C65    1.37784   1_545     S
C67   H68    0.94979       .     S
H68   C67    0.94979       .     S
C67   C83    1.38108       .     S
C83   C67    1.38108       .     S
C69   H70    0.95016       .     S
H70   C69    0.95016       .     S
C69   C73    1.38058       .     S
C73   C69    1.38058       .     S
C71   H72    0.95066   1_545     S
H72   C71    0.95066   1_565     S
C73   H74    0.94959       .     S
H74   C73    0.94959       .     S
C75   H76    0.94939       .     S
H76   C75    0.94939       .     S
C75   C81    1.37755       .     S
C81   C75    1.37755       .     S
C77   H78    0.94994       .     S
H78   C77    0.94994       .     S
C77   C79    1.37524       .     S
C79   C77    1.37524       .     S
C79   H80    0.95042       .     S
H80   C79    0.95042       .     S
C82   C83    1.37601   1_565     S
C83   C82    1.37601   1_545     S
C82   C87    1.37059       .     S
C87   C82    1.37059       .     S
C83   H84    0.95049       .     S
H84   C83    0.95049       .     S
C85   H86    0.94992       .     S
H86   C85    0.94992       .     S
C85   C87    1.38060   1_545     S
C87   C85    1.38060   1_565     S
C87   H88    0.94983       .     S
H88   C87    0.94983       .     S
O89   H90    0.83979       .     S
H90   O89    0.83979       .     S
O89   C92    1.28922       .     S
C92   O89    1.28922       .     S
O89   H97    1.03139       .     S
H97   O89    1.03139       .     S
H90   H97    0.66382       .     S
H97   H90    0.66382       .     S
H91   C92    0.94521       .     S
C92   H91    0.94521       .     S
H91   C95    0.96107       .     S
C95   H91    0.96107       .     S
H91   H98    0.43983       .     S
H98   H91    0.43983       .     S
C92   H93    0.95398       .     S
H93   C92    0.95398       .     S
C92   H94    0.95759       .     S
H94   C92    0.95759       .     S
C92   C95    1.00714       .     S
C95   C92    1.00714       .     S
C92   H96    1.12394       .     S
H96   C92    1.12394       .     S
C92   H98    0.96853       .     S
H98   C92    0.96853       .     S
C95   H96    0.96035       .     S
H96   C95    0.96035       .     S
C95   H97    0.95823       .     S
H97   C95    0.95823       .     S
C95   H98    0.58209       .     S
H98   C95    0.58209       .     S
C95   O99    1.43198   1_545     S
O99   C95    1.43198   1_565     S
O99   H100   0.83962       .     S
H100  O99    0.83962       .     S
N2    O0     1.22865   1_554     S
O0    N2     1.22865   1_556     S
N2    O1     1.22110       .     S
O1    N2     1.22110       .     S
C31   N2     1.46446       .     S
N2    C31    1.46446       .     S
N9    O3     1.22322       .     S
O3    N9     1.22322       .     S
N8    O4     1.22234       .     S
O4    N8     1.22234       .     S
N8    O5     1.21489       .     S
O5    N8     1.21489       .     S
N10   O6     1.22062       .     S
O6    N10    1.22062       .     S
N9    O7     1.22032       .     S
O7    N9     1.22032       .     S
C54   N8     1.46485       .     S
N8    C54    1.46485       .     S
C82   N9     1.46581       .     S
N9    C82    1.46581       .     S
O28   N10    1.22293   1_565     S
N10   O28    1.22293   1_545     S
C81   N10    1.46794       .     S
N10   C81    1.46794       .     S
C18   C11    1.39831       .     S
C11   C18    1.39831       .     S
C19   C11    1.52696       .     S
C11   C19    1.52696       .     S
C20   C11    1.38046       .     S
C11   C20    1.38046       .     S
C18   C12    1.46319       .     S
C12   C18    1.46319       .     S
C27   C12    1.39955       .     S
C12   C27    1.39955       .     S
C42   C12    1.39138       .     S
C12   C42    1.39138       .     S
H14   C13    0.95006       .     S
C13   H14    0.95006       .     S
C15   C13    1.38003       .     S
C13   C15    1.38003       .     S
C32   C13    1.40076       .     S
C13   C32    1.40076       .     S
C19   C15    1.52424       .     S
C15   C19    1.52424       .     S
C24   C15    1.40214       .     S
C15   C24    1.40214       .     S
C17   C16    1.39386       .     S
C16   C17    1.39386       .     S
C24   C16    1.45998       .     S
C16   C24    1.45998       .     S
C46   C16    1.39253   1_565     S
C16   C46    1.39253   1_545     S
C19   C17    1.52838       .     S
C17   C19    1.52838       .     S
C29   C17    1.37527       .     S
C17   C29    1.37527       .     S
C61   C18    1.38968       .     S
C18   C61    1.38968       .     S
C27   C19    1.53096       .     S
C19   C27    1.53096       .     S
H21   C20    0.94990       .     S
C20   H21    0.94990       .     S
C22   C20    1.40575       .     S
C20   C22    1.40575       .     S
C23   C22    1.48230       .     S
C22   C23    1.48230       .     S
C57   C22    1.40097       .     S
C22   C57    1.40097       .     S
C44   C23    1.39788       .     S
C23   C44    1.39788       .     S
C73   C23    1.39449       .     S
C23   C73    1.39449       .     S
C50   C24    1.38749   1_565     S
C24   C50    1.38749   1_545     S
C34   C25    1.40527       .     S
C25   C34    1.40527       .     S
C37   C25    1.48230       .     S
C25   C37    1.48230       .     S
C55   C25    1.39702       .     S
C25   C55    1.39702       .     S
C33   C26    1.47634       .     S
C26   C33    1.47634       .     S
C59   C26    1.39720       .     S
C26   C59    1.39720       .     S
C63   C26    1.39608   1_565     S
C26   C63    1.39608   1_545     S
C34   C27    1.37901       .     S
C27   C34    1.37901       .     S
H30   C29    0.94949       .     S
C29   H30    0.94949       .     S
C33   C29    1.39984       .     S
C29   C33    1.39984       .     S
C52   C31    1.37976       .     S
C31   C52    1.37976       .     S
C77   C31    1.37476       .     S
C31   C77    1.37476       .     S
C36   C32    1.47919       .     S
C32   C36    1.47919       .     S
C71   C32    1.40108       .     S
C32   C71    1.40108       .     S
C38   C33    1.40330   1_565     S
C33   C38    1.40330   1_545     S
H35   C34    0.95079       .     S
C34   H35    0.95079       .     S
C40   C36    1.39398       .     S
C36   C40    1.39398       .     S
C79   C36    1.40038       .     S
C36   C79    1.40038       .     S
C67   C37    1.39269       .     S
C37   C67    1.39269       .     S
C85   C37    1.38987       .     S
C37   C85    1.38987       .     S
H39   C38    0.95039       .     S
C38   H39    0.95039       .     S
C46   C38    1.38246       .     S
C38   C46    1.38246       .     S
H41   C40    0.94948       .     S
C40   H41    0.94948       .     S
C52   C40    1.38353       .     S
C40   C52    1.38353       .     S
H43   C42    0.94961       .     S
C42   H43    0.94961       .     S
C55   C42    1.38022       .     S
C42   C55    1.38022       .     S
H45   C44    0.94985       .     S
C44   H45    0.94985       .     S
C48   C44    1.38051       .     S
C44   C48    1.38051       .     S
H47   C46    0.95038       .     S
C46   H47    0.95038       .     S
H49   C48    0.95014       .     S
C48   H49    0.95014       .     S
C54   C48    1.38352       .     S
C48   C54    1.38352       .     S
H51   C50    0.95063       .     S
C50   H51    0.95063       .     S
C71   C50    1.38011   1_545     S
C50   C71    1.38011   1_565     S
H53   C52    0.94987       .     S
C52   H53    0.94987       .     S
C69   C54    1.37475       .     S
C54   C69    1.37475       .     S
H56   C55    0.94950       .     S
C55   H56    0.94950       .     S
H58   C57    0.95061       .     S
C57   H58    0.95061       .     S
C61   C57    1.38143       .     S
C57   C61    1.38143       .     S
H60   C59    0.94937       .     S
C59   H60    0.94937       .     S
C75   C59    1.37992       .     S
C59   C75    1.37992       .     S
H62   C61    0.94999       .     S
C61   H62    0.94999       .     S
H64   C63    0.94983       .     S
C63   H64    0.94983       .     S
C65   C63    1.38303       .     S
C63   C65    1.38303       .     S
H66   C65    0.95042       .     S
C65   H66    0.95042       .     S
C81   C65    1.37784   1_545     S
C65   C81    1.37784   1_565     S
H68   C67    0.94979       .     S
C67   H68    0.94979       .     S
C83   C67    1.38108       .     S
C67   C83    1.38108       .     S
H70   C69    0.95016       .     S
C69   H70    0.95016       .     S
C73   C69    1.38058       .     S
C69   C73    1.38058       .     S
H72   C71    0.95066   1_565     S
C71   H72    0.95066   1_545     S
H74   C73    0.94959       .     S
C73   H74    0.94959       .     S
H76   C75    0.94939       .     S
C75   H76    0.94939       .     S
C81   C75    1.37755       .     S
C75   C81    1.37755       .     S
H78   C77    0.94994       .     S
C77   H78    0.94994       .     S
C79   C77    1.37524       .     S
C77   C79    1.37524       .     S
H80   C79    0.95042       .     S
C79   H80    0.95042       .     S
C83   C82    1.37601   1_545     S
C82   C83    1.37601   1_565     S
C87   C82    1.37059       .     S
C82   C87    1.37059       .     S
H84   C83    0.95049       .     S
C83   H84    0.95049       .     S
H86   C85    0.94992       .     S
C85   H86    0.94992       .     S
C87   C85    1.38060   1_565     S
C85   C87    1.38060   1_545     S
H88   C87    0.94983       .     S
C87   H88    0.94983       .     S
H90   O89    0.83979       .     S
O89   H90    0.83979       .     S
C92   O89    1.28922       .     S
O89   C92    1.28922       .     S
H97   O89    1.03139       .     S
O89   H97    1.03139       .     S
H97   H90    0.66382       .     S
H90   H97    0.66382       .     S
C92   H91    0.94521       .     S
H91   C92    0.94521       .     S
C95   H91    0.96107       .     S
H91   C95    0.96107       .     S
H98   H91    0.43983       .     S
H91   H98    0.43983       .     S
H93   C92    0.95398       .     S
C92   H93    0.95398       .     S
H94   C92    0.95759       .     S
C92   H94    0.95759       .     S
C95   C92    1.00714       .     S
C92   C95    1.00714       .     S
H96   C92    1.12394       .     S
C92   H96    1.12394       .     S
H98   C92    0.96853       .     S
C92   H98    0.96853       .     S
H96   C95    0.96035       .     S
C95   H96    0.96035       .     S
H97   C95    0.95823       .     S
C95   H97    0.95823       .     S
H98   C95    0.58209       .     S
C95   H98    0.58209       .     S
O99   C95    1.43198   1_565     S
C95   O99    1.43198   1_545     S
H100  O99    0.83962       .     S
O99   H100   0.83962       .     S
