data_I
_chemical_name_common  '/data/user2/wty/HOF/MOFDiff/mofdiff/data/test/231hof-fju-88'
_cell_length_a  8.58930
_cell_length_b 10.13370
_cell_length_c 10.86860
_cell_angle_alpha 70.55000
_cell_angle_beta  76.12300
_cell_angle_gamma 80.37600
_space_group_name_H-M_alt      'P 1'


loop_
_space_group_symop_operation_xyz
  'x, y, z' 

loop_
_atom_site_label
_atom_site_fract_x
_atom_site_fract_y
_atom_site_fract_z
_atom_site_type_symbol
C0      0.4914   0.5482   0.1915     C
H1     0.53283  0.59052  0.10197     H
N2      0.4961    0.353   0.3901     N
N3      0.2606   0.2003   0.8001     N
H4     0.26945  0.12557  0.86615     H
N5      0.8882   0.1851   0.1375     N
N6      0.1558   0.3132   0.8029     N
C7      0.3001   0.5512   0.3908     C
H8     0.21277  0.59606  0.43561     H
N9      0.1288   0.9491   0.1377     N
H10    0.04647  0.00997   0.1414     H
N11     0.9087   0.3053   0.0383     N
H12    0.98344   0.3174  0.96805     H
N13     0.2587   0.9631   0.0388     N
C14     0.3005   0.3529   0.5967     C
C15     0.3639   0.6149   0.2588     C
C16     0.3666   0.4206   0.4559     C
C17     0.2953   0.7552   0.1894     C
C18     0.5573   0.4174   0.2586     C
C19     0.6956   0.3469   0.1879     C
C20     0.7607   0.2091   0.2276     C
H21    0.72091  0.14196  0.30663     H
C22     0.3487   0.2231   0.6777     C
H23    0.43104  0.16044  0.65067     H
C24     0.3585   0.8471   0.0692     C
H25    0.45749  0.83031  0.01628     H
C26     0.1482   0.8262   0.2286     C
H27    0.07452  0.79224  0.30709     H
C28     0.1792   0.4061   0.6809     C
H29    0.12188  0.49401  0.65652     H
C30     0.7947   0.4029    0.066     C
H31    0.78298   0.4953  0.01159     H
loop_
_geom_bond_atom_site_label_1
_geom_bond_atom_site_label_2
_geom_bond_distance
_geom_bond_site_symmetry_2
_ccdc_geom_bond_type
H4    N13    2.03730   1_546     S
N13   H4     2.03730   1_564     S
H10   N5     2.04213   1_455     S
N5    H10    2.04213   1_655     S
H12   N6     2.04219   1_655     S
N6    H12    2.04219   1_455     S
C0    H1     0.92974       .     S
H1    C0     0.92974       .     S
C0    C15    1.37431       .     S
C15   C0     1.37431       .     S
C0    C18    1.38295       .     S
C18   C0     1.38295       .     S
N2    C16    1.38126       .     S
C16   N2     1.38126       .     S
N2    C18    1.37042       .     S
C18   N2     1.37042       .     S
N3    H4     0.85994       .     S
H4    N3     0.85994       .     S
N3    N6     1.33636       .     S
N6    N3     1.33636       .     S
N3    C22    1.32915       .     S
C22   N3     1.32915       .     S
N5    N11    1.33536       .     S
N11   N5     1.33536       .     S
N5    C20    1.33138       .     S
C20   N5     1.33138       .     S
N6    C28    1.33752       .     S
C28   N6     1.33752       .     S
C7    H8     0.92989       .     S
H8    C7     0.92989       .     S
C7    C15    1.37828       .     S
C15   C7     1.37828       .     S
C7    C16    1.37692       .     S
C16   C7     1.37692       .     S
N9    H10    0.85977   1_565     S
H10   N9     0.85977   1_545     S
N9    N13    1.34035       .     S
N13   N9     1.34035       .     S
N9    C26    1.32101       .     S
C26   N9     1.32101       .     S
N11   H12    0.85963   1_554     S
H12   N11    0.85963   1_556     S
N11   C30    1.32692       .     S
C30   N11    1.32692       .     S
N13   C24    1.32894       .     S
C24   N13    1.32894       .     S
C14   C16    1.46599       .     S
C16   C14    1.46599       .     S
C14   C22    1.37773       .     S
C22   C14    1.37773       .     S
C14   C28    1.37733       .     S
C28   C14    1.37733       .     S
C15   C17    1.46847       .     S
C17   C15    1.46847       .     S
C17   C24    1.37379       .     S
C24   C17    1.37379       .     S
C17   C26    1.39196       .     S
C26   C17    1.39196       .     S
C18   C19    1.46832       .     S
C19   C18    1.46832       .     S
C19   C20    1.37921       .     S
C20   C19    1.37921       .     S
C19   C30    1.38627       .     S
C30   C19    1.38627       .     S
C20   H21    0.93019       .     S
H21   C20    0.93019       .     S
C22   H23    0.92957       .     S
H23   C22    0.92957       .     S
C24   H25    0.93001       .     S
H25   C24    0.93001       .     S
C26   H27    0.93007       .     S
H27   C26    0.93007       .     S
C28   H29    0.93003       .     S
H29   C28    0.93003       .     S
C30   H31    0.92999       .     S
H31   C30    0.92999       .     S
N13   H4     2.03730   1_564     S
H4    N13    2.03730   1_546     S
N5    H10    2.04213   1_655     S
H10   N5     2.04213   1_455     S
N6    H12    2.04219   1_455     S
H12   N6     2.04219   1_655     S
H1    C0     0.92974       .     S
C0    H1     0.92974       .     S
C15   C0     1.37431       .     S
C0    C15    1.37431       .     S
C18   C0     1.38295       .     S
C0    C18    1.38295       .     S
C16   N2     1.38126       .     S
N2    C16    1.38126       .     S
C18   N2     1.37042       .     S
N2    C18    1.37042       .     S
H4    N3     0.85994       .     S
N3    H4     0.85994       .     S
N6    N3     1.33636       .     S
N3    N6     1.33636       .     S
C22   N3     1.32915       .     S
N3    C22    1.32915       .     S
N11   N5     1.33536       .     S
N5    N11    1.33536       .     S
C20   N5     1.33138       .     S
N5    C20    1.33138       .     S
C28   N6     1.33752       .     S
N6    C28    1.33752       .     S
H8    C7     0.92989       .     S
C7    H8     0.92989       .     S
C15   C7     1.37828       .     S
C7    C15    1.37828       .     S
C16   C7     1.37692       .     S
C7    C16    1.37692       .     S
H10   N9     0.85977   1_545     S
N9    H10    0.85977   1_565     S
N13   N9     1.34035       .     S
N9    N13    1.34035       .     S
C26   N9     1.32101       .     S
N9    C26    1.32101       .     S
H12   N11    0.85963   1_556     S
N11   H12    0.85963   1_554     S
C30   N11    1.32692       .     S
N11   C30    1.32692       .     S
C24   N13    1.32894       .     S
N13   C24    1.32894       .     S
C16   C14    1.46599       .     S
C14   C16    1.46599       .     S
C22   C14    1.37773       .     S
C14   C22    1.37773       .     S
C28   C14    1.37733       .     S
C14   C28    1.37733       .     S
C17   C15    1.46847       .     S
C15   C17    1.46847       .     S
C24   C17    1.37379       .     S
C17   C24    1.37379       .     S
C26   C17    1.39196       .     S
C17   C26    1.39196       .     S
C19   C18    1.46832       .     S
C18   C19    1.46832       .     S
C20   C19    1.37921       .     S
C19   C20    1.37921       .     S
C30   C19    1.38627       .     S
C19   C30    1.38627       .     S
H21   C20    0.93019       .     S
C20   H21    0.93019       .     S
H23   C22    0.92957       .     S
C22   H23    0.92957       .     S
H25   C24    0.93001       .     S
C24   H25    0.93001       .     S
H27   C26    0.93007       .     S
C26   H27    0.93007       .     S
H29   C28    0.93003       .     S
C28   H29    0.93003       .     S
H31   C30    0.92999       .     S
C30   H31    0.92999       .     S
