data_I
_chemical_name_common  '/data/user2/wty/HOF/MOFDiff/mofdiff/data/test/232hof-tppas'
_cell_length_a 42.33500
_cell_length_b  4.65950
_cell_length_c 27.69000
_cell_angle_alpha 90.00000
_cell_angle_beta  101.43100
_cell_angle_gamma 90.00000
_space_group_name_H-M_alt      'P 1'


loop_
_space_group_symop_operation_xyz
  'x, y, z' 

loop_
_atom_site_label
_atom_site_fract_x
_atom_site_fract_y
_atom_site_fract_z
_atom_site_type_symbol
O0     0.60005     0.12  0.55252     O
O1     0.60891   0.7795  0.68457     O
O2     0.69922   0.2433  0.66116     O
N3     0.66598   0.8742  0.73902     N
H4     0.64522  0.91253  0.73327     H
N5     0.65121   0.8031  0.54536     N
H6     0.63071  0.84124  0.53407     H
N7     0.55512   0.7255  0.61907     N
H8     0.56534  0.80964  0.64614     H
N9     0.74176   0.5762  0.88087     N
H10    0.75816  0.64374  0.86913     H
H11    0.73016  0.72009  0.88842     H
N12    0.70526   0.9848  0.43752     N
H13    0.71774  0.86232  0.45695     H
H14     0.6898  0.88841  0.41797     H
N15     0.4235    0.984   0.5559     N
H16    0.41541  0.86011  0.53244     H
H17    0.41413  0.95712  0.58143     H
N18     0.4311    0.134   0.5403     N
H19    0.42196  0.03458  0.51427     H
H20    0.41902  0.12531  0.56281     H
C21     0.6917   0.1799  0.46641     C
C22    0.66082   0.2894  0.44931     C
H23    0.64846   0.2232  0.41892     H
C24    0.64824   0.4914  0.47603     C
H25    0.62705  0.56177  0.46425     H
C26    0.66579   0.5932  0.51946     C
C27    0.69693   0.4891  0.53747     C
H28     0.7093  0.56026  0.56749     H
C29    0.70952    0.279  0.51063     C
H30    0.73044  0.20378   0.5228     H
C31    0.66532   0.9424  0.58389     C
H32    0.68728  0.90046   0.5972     H
C33    0.64958   0.1571   0.6076     C
C34    0.66986   0.2997  0.64896     C
C35    0.65493   0.5171  0.67512     C
C36    0.62158   0.5911  0.66043     C
C37    0.60271    0.455  0.61733     C
C38    0.61684   0.2365  0.59083     C
C39    0.67519   0.6624  0.71314     C
H40    0.69715  0.60526  0.72101     H
C41    0.68578   0.0458  0.77486     C
C42    0.67115   0.2292  0.80279     C
H43    0.64832  0.23091  0.79838     H
C44    0.68918   0.4111  0.83716     C
H45    0.67866  0.53927   0.8555     H
C46    0.72287   0.4062  0.84494     C
C47    0.73728   0.2185  0.81672     C
H48    0.76012  0.21187  0.82166     H
C49    0.71933    0.042  0.78184     C
H50    0.72974  0.91832  0.76262     H
C51    0.57111   0.5327  0.59944     C
H52     0.5601  0.43854  0.57053     H
C53    0.52261   0.8123   0.6007     C
C54     0.5037   0.8979   0.6355     C
H55    0.51354  0.91726  0.66931     H
C56    0.47129   0.9525   0.6205     C
H57    0.45887  0.00064  0.64436     H
C58     0.4563    0.939   0.5711     C
C59     0.4699    0.731    0.549     C
H60     0.4548  0.61121  0.52824     H
C61    0.50069   0.6317   0.5684     C
H62    0.50716  0.44558  0.56019     H
C63    0.50855   0.8192   0.5521     C
H64    0.52144   0.7851  0.52827     H
C65     0.4762    0.874   0.5365     C
H66    0.46697  0.86886   0.5023     H
C67     0.4615    0.005   0.5604     C
C68    0.48278   0.1692   0.5947     C
H69    0.47642  0.35236  0.60439     H
C70    0.51335   0.0626   0.6144     C
H71    0.52765  0.17256  0.63813     H
loop_
_geom_bond_atom_site_label_1
_geom_bond_atom_site_label_2
_geom_bond_distance
_geom_bond_site_symmetry_2
_ccdc_geom_bond_type
H4    O1     1.93493       .     S
O1    H4     1.93493       .     S
H6    O0     1.97376   1_565     S
O0    H6     1.97376   1_545     S
H8    O1     1.94330       .     S
O1    H8     1.94330       .     S
O0    C38    1.27528       .     S
C38   O0     1.27528       .     S
O1    C36    1.28345       .     S
C36   O1     1.28345       .     S
O2    C34    1.24967       .     S
C34   O2     1.24967       .     S
N3    H4     0.87989       .     S
H4    N3     0.87989       .     S
N3    C39    1.32297       .     S
C39   N3     1.32297       .     S
N3    C41    1.41318   1_565     S
C41   N3     1.41318   1_545     S
N5    H6     0.88032       .     S
H6    N5     0.88032       .     S
N5    C26    1.42384       .     S
C26   N5     1.42384       .     S
N5    C31    1.28987       .     S
C31   N5     1.28987       .     S
N7    H8     0.87989       .     S
H8    N7     0.87989       .     S
N7    C51    1.30636       .     S
C51   N7     1.30636       .     S
N7    C53    1.42795       .     S
C53   N7     1.42795       .     S
N9    H10    0.88103       .     S
H10   N9     0.88103       .     S
N9    H11    0.88038       .     S
H11   N9     0.88038       .     S
N9    C46    1.39336       .     S
C46   N9     1.39336       .     S
N12   H13    0.88410       .     S
H13   N12    0.88410       .     S
N12   H14    0.88470       .     S
H14   N12    0.88470       .     S
N12   C21    1.40639   1_565     S
C21   N12    1.40639   1_545     S
N15   H16    0.88563       .     S
H16   N15    0.88563       .     S
N15   H17    0.88540       .     S
H17   N15    0.88540       .     S
N15   N18    0.91307   1_565     S
N18   N15    0.91307   1_545     S
N15   H19    1.16568   1_565     S
H19   N15    1.16568   1_545     S
N15   H20    0.72146   1_565     S
H20   N15    0.72146   1_545     S
N15   C58    1.38479       .     S
C58   N15    1.38479       .     S
N15   C67    1.59175   1_565     S
C67   N15    1.59175   1_545     S
H16   N18    1.43525   1_565     S
N18   H16    1.43525   1_545     S
N18   H19    0.87937       .     S
H19   N18    0.87937       .     S
N18   H20    0.88206       .     S
H20   N18    0.88206       .     S
N18   C58    1.52657   1_545     S
C58   N18    1.52657   1_565     S
N18   C67    1.42950       .     S
C67   N18    1.42950       .     S
C21   C22    1.39578       .     S
C22   C21    1.39578       .     S
C21   C29    1.38401       .     S
C29   C21    1.38401       .     S
C22   H23    0.95002       .     S
H23   C22    0.95002       .     S
C22   C24    1.36862       .     S
C24   C22    1.36862       .     S
C24   H25    0.95009       .     S
H25   C24    0.95009       .     S
C24   C26    1.36713       .     S
C26   C24    1.36713       .     S
C26   C27    1.40047       .     S
C27   C26    1.40047       .     S
C27   H28    0.95006       .     S
H28   C27    0.95006       .     S
C27   C29    1.39707       .     S
C29   C27    1.39707       .     S
C29   H30    0.94999       .     S
H30   C29    0.94999       .     S
C31   H32    0.95001       .     S
H32   C31    0.95001       .     S
C31   C33    1.43152   1_565     S
C33   C31    1.43152   1_545     S
C33   C34    1.44930       .     S
C34   C33    1.44930       .     S
C33   C38    1.42075       .     S
C38   C33    1.42075       .     S
C34   C35    1.46007       .     S
C35   C34    1.46007       .     S
C35   C36    1.43181       .     S
C36   C35    1.43181       .     S
C35   C39    1.39443       .     S
C39   C35    1.39443       .     S
C36   C37    1.44455       .     S
C37   C36    1.44455       .     S
C37   C38    1.45148       .     S
C38   C37    1.45148       .     S
C37   C51    1.37966       .     S
C51   C37    1.37966       .     S
C39   H40    0.94993       .     S
H40   C39    0.94993       .     S
C41   C42    1.37907       .     S
C42   C41    1.37907       .     S
C41   C49    1.39507       .     S
C49   C41    1.39507       .     S
C42   H43    0.94991       .     S
H43   C42    0.94991       .     S
C42   C44    1.38520       .     S
C44   C42    1.38520       .     S
C44   H45    0.95003       .     S
H45   C44    0.95003       .     S
C44   C46    1.39978       .     S
C46   C44    1.39978       .     S
C46   C47    1.39162       .     S
C47   C46    1.39162       .     S
C47   H48    0.94984       .     S
H48   C47    0.94984       .     S
C47   C49    1.37685       .     S
C49   C47    1.37685       .     S
C49   H50    0.95002   1_545     S
H50   C49    0.95002   1_565     S
C51   H52    0.95009       .     S
H52   C51    0.95009       .     S
C53   C54    1.42629       .     S
C54   C53    1.42629       .     S
C53   C61    1.42837       .     S
C61   C53    1.42837       .     S
C53   C63    1.35972       .     S
C63   C53    1.35972       .     S
C53   C70    1.31024   1_565     S
C70   C53    1.31024   1_545     S
C54   H55    0.95056       .     S
H55   C54    0.95056       .     S
C54   C56    1.37621       .     S
C56   C54    1.37621       .     S
C54   C70    1.09170   1_565     S
C70   C54    1.09170   1_545     S
C56   H57    0.94920   1_565     S
H57   C56    0.94920   1_545     S
C56   C58    1.39058       .     S
C58   C56    1.39058       .     S
C56   C67    1.65157   1_565     S
C67   C56    1.65157   1_545     S
C56   C68    1.37995   1_565     S
C68   C56    1.37995   1_545     S
C58   C59    1.33601       .     S
C59   C58    1.33601       .     S
C58   C65    1.42805       .     S
C65   C58    1.42805       .     S
C58   C67    0.50663   1_565     S
C67   C58    0.50663   1_545     S
C58   C68    1.59496   1_565     S
C68   C58    1.59496   1_545     S
C59   H60    0.95131       .     S
H60   C59    0.95131       .     S
C59   C61    1.38715       .     S
C61   C59    1.38715       .     S
C59   C63    1.67269       .     S
C63   C59    1.67269       .     S
C59   C65    0.81945       .     S
C65   C59    0.81945       .     S
C59   C67    1.37861   1_565     S
C67   C59    1.37861   1_545     S
C61   H62    0.95051       .     S
H62   C61    0.95051       .     S
C61   C63    1.06642       .     S
C63   C61    1.06642       .     S
C61   C65    1.66337       .     S
C65   C61    1.66337       .     S
C63   H64    0.94930       .     S
H64   C63    0.94930       .     S
C63   C65    1.37584       .     S
C65   C63    1.37584       .     S
C65   H66    0.95047       .     S
H66   C65    0.95047       .     S
C65   C67    1.16665   1_565     S
C67   C65    1.16665   1_545     S
C67   C68    1.39995       .     S
C68   C67    1.39995       .     S
C68   H69    0.94946       .     S
H69   C68    0.94946       .     S
C68   C70    1.39261       .     S
C70   C68    1.39261       .     S
C70   H71    0.95031       .     S
H71   C70    0.95031       .     S
O1    H4     1.93493       .     S
H4    O1     1.93493       .     S
O0    H6     1.97376   1_545     S
H6    O0     1.97376   1_565     S
O1    H8     1.94330       .     S
H8    O1     1.94330       .     S
C38   O0     1.27528       .     S
O0    C38    1.27528       .     S
C36   O1     1.28345       .     S
O1    C36    1.28345       .     S
C34   O2     1.24967       .     S
O2    C34    1.24967       .     S
H4    N3     0.87989       .     S
N3    H4     0.87989       .     S
C39   N3     1.32297       .     S
N3    C39    1.32297       .     S
C41   N3     1.41318   1_545     S
N3    C41    1.41318   1_565     S
H6    N5     0.88032       .     S
N5    H6     0.88032       .     S
C26   N5     1.42384       .     S
N5    C26    1.42384       .     S
C31   N5     1.28987       .     S
N5    C31    1.28987       .     S
H8    N7     0.87989       .     S
N7    H8     0.87989       .     S
C51   N7     1.30636       .     S
N7    C51    1.30636       .     S
C53   N7     1.42795       .     S
N7    C53    1.42795       .     S
H10   N9     0.88103       .     S
N9    H10    0.88103       .     S
H11   N9     0.88038       .     S
N9    H11    0.88038       .     S
C46   N9     1.39336       .     S
N9    C46    1.39336       .     S
H13   N12    0.88410       .     S
N12   H13    0.88410       .     S
H14   N12    0.88470       .     S
N12   H14    0.88470       .     S
C21   N12    1.40639   1_545     S
N12   C21    1.40639   1_565     S
H16   N15    0.88563       .     S
N15   H16    0.88563       .     S
H17   N15    0.88540       .     S
N15   H17    0.88540       .     S
N18   N15    0.91307   1_545     S
N15   N18    0.91307   1_565     S
H19   N15    1.16568   1_545     S
N15   H19    1.16568   1_565     S
H20   N15    0.72146   1_545     S
N15   H20    0.72146   1_565     S
C58   N15    1.38479       .     S
N15   C58    1.38479       .     S
C67   N15    1.59175   1_545     S
N15   C67    1.59175   1_565     S
N18   H16    1.43525   1_545     S
H16   N18    1.43525   1_565     S
H19   N18    0.87937       .     S
N18   H19    0.87937       .     S
H20   N18    0.88206       .     S
N18   H20    0.88206       .     S
C58   N18    1.52657   1_565     S
N18   C58    1.52657   1_545     S
C67   N18    1.42950       .     S
N18   C67    1.42950       .     S
C22   C21    1.39578       .     S
C21   C22    1.39578       .     S
C29   C21    1.38401       .     S
C21   C29    1.38401       .     S
H23   C22    0.95002       .     S
C22   H23    0.95002       .     S
C24   C22    1.36862       .     S
C22   C24    1.36862       .     S
H25   C24    0.95009       .     S
C24   H25    0.95009       .     S
C26   C24    1.36713       .     S
C24   C26    1.36713       .     S
C27   C26    1.40047       .     S
C26   C27    1.40047       .     S
H28   C27    0.95006       .     S
C27   H28    0.95006       .     S
C29   C27    1.39707       .     S
C27   C29    1.39707       .     S
H30   C29    0.94999       .     S
C29   H30    0.94999       .     S
H32   C31    0.95001       .     S
C31   H32    0.95001       .     S
C33   C31    1.43152   1_545     S
C31   C33    1.43152   1_565     S
C34   C33    1.44930       .     S
C33   C34    1.44930       .     S
C38   C33    1.42075       .     S
C33   C38    1.42075       .     S
C35   C34    1.46007       .     S
C34   C35    1.46007       .     S
C36   C35    1.43181       .     S
C35   C36    1.43181       .     S
C39   C35    1.39443       .     S
C35   C39    1.39443       .     S
C37   C36    1.44455       .     S
C36   C37    1.44455       .     S
C38   C37    1.45148       .     S
C37   C38    1.45148       .     S
C51   C37    1.37966       .     S
C37   C51    1.37966       .     S
H40   C39    0.94993       .     S
C39   H40    0.94993       .     S
C42   C41    1.37907       .     S
C41   C42    1.37907       .     S
C49   C41    1.39507       .     S
C41   C49    1.39507       .     S
H43   C42    0.94991       .     S
C42   H43    0.94991       .     S
C44   C42    1.38520       .     S
C42   C44    1.38520       .     S
H45   C44    0.95003       .     S
C44   H45    0.95003       .     S
C46   C44    1.39978       .     S
C44   C46    1.39978       .     S
C47   C46    1.39162       .     S
C46   C47    1.39162       .     S
H48   C47    0.94984       .     S
C47   H48    0.94984       .     S
C49   C47    1.37685       .     S
C47   C49    1.37685       .     S
H50   C49    0.95002   1_565     S
C49   H50    0.95002   1_545     S
H52   C51    0.95009       .     S
C51   H52    0.95009       .     S
C54   C53    1.42629       .     S
C53   C54    1.42629       .     S
C61   C53    1.42837       .     S
C53   C61    1.42837       .     S
C63   C53    1.35972       .     S
C53   C63    1.35972       .     S
C70   C53    1.31024   1_545     S
C53   C70    1.31024   1_565     S
H55   C54    0.95056       .     S
C54   H55    0.95056       .     S
C56   C54    1.37621       .     S
C54   C56    1.37621       .     S
C70   C54    1.09170   1_545     S
C54   C70    1.09170   1_565     S
H57   C56    0.94920   1_545     S
C56   H57    0.94920   1_565     S
C58   C56    1.39058       .     S
C56   C58    1.39058       .     S
C67   C56    1.65157   1_545     S
C56   C67    1.65157   1_565     S
C68   C56    1.37995   1_545     S
C56   C68    1.37995   1_565     S
C59   C58    1.33601       .     S
C58   C59    1.33601       .     S
C65   C58    1.42805       .     S
C58   C65    1.42805       .     S
C67   C58    0.50663   1_545     S
C58   C67    0.50663   1_565     S
C68   C58    1.59496   1_545     S
C58   C68    1.59496   1_565     S
H60   C59    0.95131       .     S
C59   H60    0.95131       .     S
C61   C59    1.38715       .     S
C59   C61    1.38715       .     S
C63   C59    1.67269       .     S
C59   C63    1.67269       .     S
C65   C59    0.81945       .     S
C59   C65    0.81945       .     S
C67   C59    1.37861   1_545     S
C59   C67    1.37861   1_565     S
H62   C61    0.95051       .     S
C61   H62    0.95051       .     S
C63   C61    1.06642       .     S
C61   C63    1.06642       .     S
C65   C61    1.66337       .     S
C61   C65    1.66337       .     S
H64   C63    0.94930       .     S
C63   H64    0.94930       .     S
C65   C63    1.37584       .     S
C63   C65    1.37584       .     S
H66   C65    0.95047       .     S
C65   H66    0.95047       .     S
C67   C65    1.16665   1_545     S
C65   C67    1.16665   1_565     S
C68   C67    1.39995       .     S
C67   C68    1.39995       .     S
H69   C68    0.94946       .     S
C68   H69    0.94946       .     S
C70   C68    1.39261       .     S
C68   C70    1.39261       .     S
H71   C70    0.95031       .     S
C70   H71    0.95031       .     S
