data_I
_chemical_name_common  '/data/user2/wty/HOF/MOFDiff/mofdiff/data/test/2342256277'
_cell_length_a 10.81570
_cell_length_b 19.98600
_cell_length_c 26.52700
_cell_angle_alpha 98.99200
_cell_angle_beta  101.11300
_cell_angle_gamma 100.27200
_space_group_name_H-M_alt      'P 1'


loop_
_space_group_symop_operation_xyz
  'x, y, z' 

loop_
_atom_site_label
_atom_site_fract_x
_atom_site_fract_y
_atom_site_fract_z
_atom_site_type_symbol
O0      0.5706   0.1676   0.5897     O
N1      0.7604   0.2464   0.6072     N
C2      0.6441   0.2147   0.5764     C
H3      0.6168  0.22815  0.54393     H
C4       0.816   0.2305   0.6577     C
H5     0.90154  0.26076  0.67232     H
H6      0.7598  0.23814    0.682     H
H7     0.82398  0.18193   0.6527     H
C8      0.8431   0.3025   0.5898     C
H9     0.92418  0.32032  0.61619     H
H10    0.86175  0.28369  0.55632     H
H11    0.79772  0.34019  0.58538     H
N12     0.5468  0.40656  0.49253     N
H13    0.61578  0.43192  0.51534     H
N14     0.7623   0.5156  0.48937     N
N15     0.3025    0.906  0.55358     N
N16     0.4642   0.8388  0.56733     N
N17     0.6552   0.4188  0.60208     N
N18     0.8913   0.9997  0.57429     N
N19     0.0996   0.0463  0.56103     N
N20     0.8651   0.5305  0.59979     N
H21    0.80004   0.5027  0.57633     H
N22     0.5274   0.9607    0.571     N
N23     0.6762   0.8954  0.58946     N
H24    0.73763  0.93296  0.59556     H
H25    0.69603  0.85521  0.59268     H
N26     0.9515   0.1193   0.5702     N
C27     0.5166   0.4082   0.4408     C
N28     0.0408   0.9332    0.571     N
H29    0.98632  0.89888   0.5773     H
H30    0.11737  0.92751  0.56691     H
C31     0.0559   0.6613   0.5396     C
C32     0.9528      0.6   0.5414     C
C33     0.2431   0.7823   0.5482     C
N34     0.7498    0.072   0.5775     N
H35    0.73025  0.11279  0.57686     H
H36    0.69147  0.03675  0.58022     H
C37      0.453   0.3591   0.5037     C
C38     0.7107   0.4964    0.438     C
C39     0.8702   0.5646   0.4938     C
C40     0.5536   0.8993   0.5754     C
N41     0.3678   0.0235   0.5585     N
H42    0.42834  0.06132  0.56363     H
H43    0.28602  0.02603  0.55189     H
C44     0.4553    0.339   0.5522     C
C45     0.5492   0.4326   0.3554     C
C46     0.5932   0.4458   0.4131     C
C47     0.3414   0.8458   0.5558     C
C48     0.7918   0.5301   0.4067     C
H49    0.77894  0.52288  0.36968     H
C50     0.5491   0.3656   0.5972     C
C51     0.3941   0.3639   0.4177     C
H52    0.34803  0.35624  0.38228     H
C53     0.0637   0.1062   0.5635     C
C54     0.0086   0.9918   0.5679     C
C55     0.0206   0.7196   0.5254     C
H56    0.93209  0.71852  0.51198     H
C57     0.1622   0.1686   0.5598     C
C58     0.2788   0.7218   0.5615     C
H59    0.36723  0.72167  0.57403     H
C60     0.3373   0.2152   0.5233     C
H61    0.39364  0.20869  0.50045     H
C62      0.186   0.6628   0.5565     C
H63     0.2117  0.62206  0.56492     H
C64     0.8663   0.0637   0.5744     C
C65     0.9508   0.5834   0.5903     C
C66     0.8881   0.5734   0.4428     C
H67    0.95686  0.60481  0.43591     H
C68     0.3483   0.2802   0.5528     C
C69     0.1715   0.2321   0.5886     C
H70    0.11257  0.23799  0.61041     H
C71     0.1129    0.781   0.5305     C
H72    0.08634  0.82145  0.52184     H
C73     0.8335    0.479   0.6765     C
C74     0.5523   0.3418   0.6456     C
H75    0.49105  0.30521  0.65155     H
C76     0.6584   0.3806   0.6814     C
H77    0.68606  0.37754  0.71707     H
C78     0.7207   0.4285    0.652     C
C79     0.3559   0.3344   0.4567     C
H80     0.2769  0.30247  0.45304     H
C81     0.2649   0.2892   0.5872     C
H82    0.27236  0.33308  0.60884     H
C83     0.8915    0.482    0.734     C
C84     0.8966   0.5278   0.6512     C
N85     0.3765   0.4539    0.172     N
C86     0.4004   0.9619   0.5607     C
C87     0.2431   0.1583   0.5267     C
H88    0.23584  0.11364  0.50638     H
C89     0.5121   0.4855   0.3293     C
H90    0.52096   0.5306  0.34924     H
C91     0.0126   0.5812   0.6768     C
H92    0.05814  0.59066  0.71245     H
C93     0.4508   0.4073   0.2483     C
C94     0.5328   0.3688   0.3259     C
H95    0.55493  0.33218  0.34218     H
C96     0.0402   0.6142   0.6379     C
H97     0.1099  0.65251  0.64222     H
C98     0.8836   0.5344   0.7726     C
H99    0.84156  0.57031  0.76384     H
N100    0.0763   0.5519   0.9258     N
C101    0.4645   0.4731   0.2768     C
H102    0.4409  0.50904  0.26003     H
C103    0.4856   0.3564   0.2736     C
H104   0.47607  0.31115  0.25385     H
C105    0.9937   0.4826   0.8367     C
C106    0.9359   0.5347   0.8232     C
H107   0.93236   0.5716  0.84986     H
N108    0.2844    0.384   0.0905     N
N109    0.1608   0.4939    0.993     N
C110    0.9519   0.4298   0.7492     C
H111   0.95933  0.39313   0.7232     H
C112    0.9997   0.4305      0.8     C
H113    0.0378  0.39368  0.80967     H
C114    0.3931   0.3975   0.1905     C
N115    0.3667   0.3343    0.164     N
N116    0.3018   0.4972    0.101     N
H117   0.26321   0.4921  0.06777     H
H118   0.32682  0.53889  0.12097     H
N119    0.0753   0.4273   0.9042     N
C120    0.3217   0.4434   0.1204     C
C121    0.0494   0.4898   0.8936     C
N122    0.1598    0.608   0.0087     N
H123   0.14443  0.64619  0.99869     H
H124   0.19551  0.60913   0.0417     H
C125    0.1306   0.5513   0.9758     C
N126    0.1538   0.3779   0.9724     N
H127   0.19399  0.37942  0.00484     H
H128   0.13161  0.33846  0.94954     H
C129    0.1265   0.4353   0.9579     C
C130    0.3118   0.3374   0.1112     C
N131    0.2905   0.2698    0.082     N
H132   0.25664  0.26101  0.04807     H
H133   0.31093  0.23622  0.09755     H
O134    0.8759    0.819   0.6102     O
N135    0.8486   0.7694    0.682     N
C136    0.9067   0.7901   0.6433     C
H137   0.98817  0.77815  0.64411     H
C138    0.7267   0.7962   0.6849     C
H139   0.69043  0.77978  0.71296     H
H140    0.7476  0.84704  0.69216     H
H141   0.66359   0.7791  0.65139     H
C142    0.8783    0.727   0.7201     C
H143   0.81317  0.72416   0.7412     H
H144   0.87815  0.68031  0.70198     H
H145   0.96358  0.74771  0.74295     H
loop_
_geom_bond_atom_site_label_1
_geom_bond_atom_site_label_2
_geom_bond_distance
_geom_bond_site_symmetry_2
_ccdc_geom_bond_type
H13   N14    2.37038       .     S
N14   H13    2.37038       .     S
H13   N17    2.32276       .     S
N17   H13    2.32276       .     S
H21   N14    2.32698       .     S
N14   H21    2.32698       .     S
H21   N17    2.35926       .     S
N17   H21    2.35926       .     S
H24   N18    2.16011       .     S
N18   H24    2.16011       .     S
H25   O134   2.18703       .     S
O134  H25    2.18703       .     S
H29   O134   2.21225       .     S
O134  H29    2.21225       .     S
H30   N15    2.20262       .     S
N15   H30    2.20262       .     S
H35   O0     2.25438       .     S
O0    H35    2.25438       .     S
H35   N1     2.60791       .     S
N1    H35    2.60791       .     S
H36   N22    2.06726   1_545     S
N22   H36    2.06726   1_565     S
H42   O0     2.30707       .     S
O0    H42    2.30707       .     S
H43   N19    2.17653       .     S
N19   H43    2.17653       .     S
H117  N109   2.08609   1_554     S
N109  H117   2.08609   1_556     S
H127  N108   2.27474       .     S
N108  H127   2.27474       .     S
O0    C2     1.26000       .     S
C2    O0     1.26000       .     S
N1    C2     1.34498       .     S
C2    N1     1.34498       .     S
N1    C4     1.46555       .     S
C4    N1     1.46555       .     S
N1    C8     1.49448       .     S
C8    N1     1.49448       .     S
C2    H3     0.95078       .     S
H3    C2     0.95078       .     S
C4    H5     0.98027       .     S
H5    C4     0.98027       .     S
C4    H6     0.98065       .     S
H6    C4     0.98065       .     S
C4    H7     0.98050       .     S
H7    C4     0.98050       .     S
C8    H9     0.97977       .     S
H9    C8     0.97977       .     S
C8    H10    0.98108       .     S
H10   C8     0.98108       .     S
C8    H11    0.97946       .     S
H11   C8     0.97946       .     S
N12   H13    0.88027       .     S
H13   N12    0.88027       .     S
N12   C27    1.35496       .     S
C27   N12    1.35496       .     S
N12   C37    1.37014       .     S
C37   N12    1.37014       .     S
N14   C38    1.33516       .     S
C38   N14    1.33516       .     S
N14   C39    1.35586       .     S
C39   N14    1.35586       .     S
N15   C47    1.34952       .     S
C47   N15    1.34952       .     S
N15   C86    1.35649       .     S
C86   N15    1.35649       .     S
N16   C40    1.36570       .     S
C40   N16    1.36570       .     S
N16   C47    1.34171       .     S
C47   N16    1.34171       .     S
N17   C50    1.38877       .     S
C50   N17    1.38877       .     S
N17   C78    1.34245       .     S
C78   N17    1.34245       .     S
N18   C54    1.34506   1_655     S
C54   N18    1.34506   1_455     S
N18   C64    1.35341   1_565     S
C64   N18    1.35341   1_545     S
N19   C53    1.31883       .     S
C53   N19    1.31883       .     S
N19   C54    1.39184   1_545     S
C54   N19    1.39184   1_565     S
N20   H21    0.88023       .     S
H21   N20    0.88023       .     S
N20   C65    1.36527       .     S
C65   N20    1.36527       .     S
N20   C84    1.35250       .     S
C84   N20    1.35250       .     S
N22   C40    1.32508       .     S
C40   N22    1.32508       .     S
N22   C86    1.35319       .     S
C86   N22    1.35319       .     S
N23   H24    0.87968       .     S
H24   N23    0.87968       .     S
N23   H25    0.87995       .     S
H25   N23    0.87995       .     S
N23   C40    1.32619       .     S
C40   N23    1.32619       .     S
N26   C53    1.32464   1_655     S
C53   N26    1.32464   1_455     S
N26   C64    1.34516       .     S
C64   N26    1.34516       .     S
C27   C46    1.40580       .     S
C46   C27    1.40580       .     S
C27   C51    1.41911       .     S
C51   C27    1.41911       .     S
N28   H29    0.88049   1_455     S
H29   N28    0.88049   1_655     S
N28   H30    0.88029       .     S
H30   N28    0.88029       .     S
N28   C54    1.29006       .     S
C54   N28    1.29006       .     S
C31   C32    1.51601   1_455     S
C32   C31    1.51601   1_655     S
C31   C55    1.37322       .     S
C55   C31    1.37322       .     S
C31   C62    1.38544       .     S
C62   C31    1.38544       .     S
C32   C39    1.39769       .     S
C39   C32    1.39769       .     S
C32   C65    1.39139       .     S
C65   C32    1.39139       .     S
C33   C47    1.46213       .     S
C47   C33    1.46213       .     S
C33   C58    1.40818       .     S
C58   C33    1.40818       .     S
C33   C71    1.39012       .     S
C71   C33    1.39012       .     S
N34   H35    0.87978       .     S
H35   N34    0.87978       .     S
N34   H36    0.88004       .     S
H36   N34    0.88004       .     S
N34   C64    1.31612       .     S
C64   N34    1.31612       .     S
C37   C44    1.40357       .     S
C44   C37    1.40357       .     S
C37   C79    1.42092       .     S
C79   C37    1.42092       .     S
C38   C46    1.44336       .     S
C46   C38    1.44336       .     S
C38   C48    1.46877       .     S
C48   C38    1.46877       .     S
C39   C66    1.43593       .     S
C66   C39    1.43593       .     S
N41   H42    0.88067       .     S
H42   N41    0.88067       .     S
N41   H43    0.88011       .     S
H43   N41    0.88011       .     S
N41   C86    1.34639   1_545     S
C86   N41    1.34639   1_565     S
C44   C50    1.37086       .     S
C50   C44    1.37086       .     S
C44   C68    1.49950       .     S
C68   C44    1.49950       .     S
C45   C46    1.47886       .     S
C46   C45    1.47886       .     S
C45   C89    1.42520       .     S
C89   C45    1.42520       .     S
C45   C94    1.35043       .     S
C94   C45    1.35043       .     S
C48   H49    0.94892       .     S
H49   C48    0.94892       .     S
C48   C66    1.33633       .     S
C66   C48    1.33633       .     S
C50   C74    1.43371       .     S
C74   C50    1.43371       .     S
C51   H52    0.94968       .     S
H52   C51    0.94968       .     S
C51   C79    1.36278       .     S
C79   C51    1.36278       .     S
C53   C57    1.51811       .     S
C57   C53    1.51811       .     S
C55   H56    0.94999   1_455     S
H56   C55    0.94999   1_655     S
C55   C71    1.40709       .     S
C71   C55    1.40709       .     S
C57   C69    1.35137       .     S
C69   C57    1.35137       .     S
C57   C87    1.37217       .     S
C87   C57    1.37217       .     S
C58   H59    0.95071       .     S
H59   C58    0.95071       .     S
C58   C62    1.37592       .     S
C62   C58    1.37592       .     S
C60   H61    0.94956       .     S
H61   C60    0.94956       .     S
C60   C68    1.38035       .     S
C68   C60    1.38035       .     S
C60   C87    1.41197       .     S
C87   C60    1.41197       .     S
C62   H63    0.95066       .     S
H63   C62    0.95066       .     S
C65   C96    1.40796   1_655     S
C96   C65    1.40796   1_455     S
C66   H67    0.94991       .     S
H67   C66    0.94991       .     S
C68   C81    1.41513       .     S
C81   C68    1.41513       .     S
C69   H70    0.94997       .     S
H70   C69    0.94997       .     S
C69   C81    1.39311       .     S
C81   C69    1.39311       .     S
C71   H72    0.95095       .     S
H72   C71    0.95095       .     S
C73   C78    1.40699       .     S
C78   C73    1.40699       .     S
C73   C83    1.52079       .     S
C83   C73    1.52079       .     S
C73   C84    1.41817       .     S
C84   C73    1.41817       .     S
C74   H75    0.94982       .     S
H75   C74    0.94982       .     S
C74   C76    1.36103       .     S
C76   C74    1.36103       .     S
C76   H77    0.95082       .     S
H77   C76    0.95082       .     S
C76   C78    1.47806       .     S
C78   C76    1.47806       .     S
C79   H80    0.94917       .     S
H80   C79    0.94917       .     S
C81   H82    0.95115       .     S
H82   C81    0.95115       .     S
C83   C98    1.37221       .     S
C98   C83    1.37221       .     S
C83   C110   1.39670       .     S
C110  C83    1.39670       .     S
C84   C91    1.46346   1_655     S
C91   C84    1.46346   1_455     S
N85   C114   1.32469       .     S
C114  N85    1.32469       .     S
N85   C120   1.34983       .     S
C120  N85    1.34983       .     S
C87   H88    0.94958       .     S
H88   C87    0.94958       .     S
C89   H90    0.94976       .     S
H90   C89    0.94976       .     S
C89   C101   1.35507       .     S
C101  C89    1.35507       .     S
C91   H92    0.95080       .     S
H92   C91    0.95080       .     S
C91   C96    1.36022       .     S
C96   C91    1.36022       .     S
C93   C101   1.37822       .     S
C101  C93    1.37822       .     S
C93   C103   1.37097       .     S
C103  C93    1.37097       .     S
C93   C114   1.50744       .     S
C114  C93    1.50744       .     S
C94   H95    0.94915       .     S
H95   C94    0.94915       .     S
C94   C103   1.34951       .     S
C103  C94    1.34951       .     S
C96   H97    0.94926       .     S
H97   C96    0.94926       .     S
C98   H99    0.95059       .     S
H99   C98    0.95059       .     S
C98   C106   1.35103       .     S
C106  C98    1.35103       .     S
N100  C121   1.34115       .     S
C121  N100   1.34115       .     S
N100  C125   1.34591       .     S
C125  N100   1.34591       .     S
C101  H102   0.94895       .     S
H102  C101   0.94895       .     S
C103  H104   0.94911       .     S
H104  C103   0.94911       .     S
C105  C106   1.36591       .     S
C106  C105   1.36591       .     S
C105  C112   1.32959       .     S
C112  C105   1.32959       .     S
C105  C121   1.48746   1_655     S
C121  C105   1.48746   1_455     S
C106  H107   0.95025       .     S
H107  C106   0.95025       .     S
N108  C120   1.26993       .     S
C120  N108   1.26993       .     S
N108  C130   1.20512       .     S
C130  N108   1.20512       .     S
N109  C125   1.36775       .     S
C125  N109   1.36775       .     S
N109  C129   1.32183       .     S
C129  N109   1.32183       .     S
C110  H111   0.95060       .     S
H111  C110   0.95060       .     S
C110  C112   1.34402       .     S
C112  C110   1.34402       .     S
C112  H113   0.95055   1_655     S
H113  C112   0.95055   1_455     S
C114  N115   1.29907       .     S
N115  C114   1.29907       .     S
N115  C130   1.42752       .     S
C130  N115   1.42752       .     S
N116  H117   0.88121       .     S
H117  N116   0.88121       .     S
N116  H118   0.88003       .     S
H118  N116   0.88003       .     S
N116  C120   1.29620       .     S
C120  N116   1.29620       .     S
N119  C121   1.38639       .     S
C121  N119   1.38639       .     S
N119  C129   1.39806       .     S
C129  N119   1.39806       .     S
N122  H123   0.87881   1_554     S
H123  N122   0.87881   1_556     S
N122  H124   0.88112       .     S
H124  N122   0.88112       .     S
N122  C125   1.26591   1_554     S
C125  N122   1.26591   1_556     S
N126  H127   0.87938   1_556     S
H127  N126   0.87938   1_554     S
N126  H128   0.87959       .     S
H128  N126   0.87959       .     S
N126  C129   1.32897       .     S
C129  N126   1.32897       .     S
C130  N131   1.40409       .     S
N131  C130   1.40409       .     S
N131  H132   0.88071       .     S
H132  N131   0.88071       .     S
N131  H133   0.87959       .     S
H133  N131   0.87959       .     S
O134  C136   1.15323       .     S
C136  O134   1.15323       .     S
N135  C136   1.38154       .     S
C136  N135   1.38154       .     S
N135  C138   1.51959       .     S
C138  N135   1.51959       .     S
N135  C142   1.44306       .     S
C142  N135   1.44306       .     S
C136  H137   0.95042       .     S
H137  C136   0.95042       .     S
C138  H139   0.97910       .     S
H139  C138   0.97910       .     S
C138  H140   0.98018       .     S
H140  C138   0.98018       .     S
C138  H141   0.98022       .     S
H141  C138   0.98022       .     S
C142  H143   0.97999       .     S
H143  C142   0.97999       .     S
C142  H144   0.98018       .     S
H144  C142   0.98018       .     S
C142  H145   0.97948       .     S
H145  C142   0.97948       .     S
N14   H13    2.37038       .     S
H13   N14    2.37038       .     S
N17   H13    2.32276       .     S
H13   N17    2.32276       .     S
N14   H21    2.32698       .     S
H21   N14    2.32698       .     S
N17   H21    2.35926       .     S
H21   N17    2.35926       .     S
N18   H24    2.16011       .     S
H24   N18    2.16011       .     S
O134  H25    2.18703       .     S
H25   O134   2.18703       .     S
O134  H29    2.21225       .     S
H29   O134   2.21225       .     S
N15   H30    2.20262       .     S
H30   N15    2.20262       .     S
O0    H35    2.25438       .     S
H35   O0     2.25438       .     S
N1    H35    2.60791       .     S
H35   N1     2.60791       .     S
N22   H36    2.06726   1_565     S
H36   N22    2.06726   1_545     S
O0    H42    2.30707       .     S
H42   O0     2.30707       .     S
N19   H43    2.17653       .     S
H43   N19    2.17653       .     S
N109  H117   2.08609   1_556     S
H117  N109   2.08609   1_554     S
N108  H127   2.27474       .     S
H127  N108   2.27474       .     S
C2    O0     1.26000       .     S
O0    C2     1.26000       .     S
C2    N1     1.34498       .     S
N1    C2     1.34498       .     S
C4    N1     1.46555       .     S
N1    C4     1.46555       .     S
C8    N1     1.49448       .     S
N1    C8     1.49448       .     S
H3    C2     0.95078       .     S
C2    H3     0.95078       .     S
H5    C4     0.98027       .     S
C4    H5     0.98027       .     S
H6    C4     0.98065       .     S
C4    H6     0.98065       .     S
H7    C4     0.98050       .     S
C4    H7     0.98050       .     S
H9    C8     0.97977       .     S
C8    H9     0.97977       .     S
H10   C8     0.98108       .     S
C8    H10    0.98108       .     S
H11   C8     0.97946       .     S
C8    H11    0.97946       .     S
H13   N12    0.88027       .     S
N12   H13    0.88027       .     S
C27   N12    1.35496       .     S
N12   C27    1.35496       .     S
C37   N12    1.37014       .     S
N12   C37    1.37014       .     S
C38   N14    1.33516       .     S
N14   C38    1.33516       .     S
C39   N14    1.35586       .     S
N14   C39    1.35586       .     S
C47   N15    1.34952       .     S
N15   C47    1.34952       .     S
C86   N15    1.35649       .     S
N15   C86    1.35649       .     S
C40   N16    1.36570       .     S
N16   C40    1.36570       .     S
C47   N16    1.34171       .     S
N16   C47    1.34171       .     S
C50   N17    1.38877       .     S
N17   C50    1.38877       .     S
C78   N17    1.34245       .     S
N17   C78    1.34245       .     S
C54   N18    1.34506   1_455     S
N18   C54    1.34506   1_655     S
C64   N18    1.35341   1_545     S
N18   C64    1.35341   1_565     S
C53   N19    1.31883       .     S
N19   C53    1.31883       .     S
C54   N19    1.39184   1_565     S
N19   C54    1.39184   1_545     S
H21   N20    0.88023       .     S
N20   H21    0.88023       .     S
C65   N20    1.36527       .     S
N20   C65    1.36527       .     S
C84   N20    1.35250       .     S
N20   C84    1.35250       .     S
C40   N22    1.32508       .     S
N22   C40    1.32508       .     S
C86   N22    1.35319       .     S
N22   C86    1.35319       .     S
H24   N23    0.87968       .     S
N23   H24    0.87968       .     S
H25   N23    0.87995       .     S
N23   H25    0.87995       .     S
C40   N23    1.32619       .     S
N23   C40    1.32619       .     S
C53   N26    1.32464   1_455     S
N26   C53    1.32464   1_655     S
C64   N26    1.34516       .     S
N26   C64    1.34516       .     S
C46   C27    1.40580       .     S
C27   C46    1.40580       .     S
C51   C27    1.41911       .     S
C27   C51    1.41911       .     S
H29   N28    0.88049   1_655     S
N28   H29    0.88049   1_455     S
H30   N28    0.88029       .     S
N28   H30    0.88029       .     S
C54   N28    1.29006       .     S
N28   C54    1.29006       .     S
C32   C31    1.51601   1_655     S
C31   C32    1.51601   1_455     S
C55   C31    1.37322       .     S
C31   C55    1.37322       .     S
C62   C31    1.38544       .     S
C31   C62    1.38544       .     S
C39   C32    1.39769       .     S
C32   C39    1.39769       .     S
C65   C32    1.39139       .     S
C32   C65    1.39139       .     S
C47   C33    1.46213       .     S
C33   C47    1.46213       .     S
C58   C33    1.40818       .     S
C33   C58    1.40818       .     S
C71   C33    1.39012       .     S
C33   C71    1.39012       .     S
H35   N34    0.87978       .     S
N34   H35    0.87978       .     S
H36   N34    0.88004       .     S
N34   H36    0.88004       .     S
C64   N34    1.31612       .     S
N34   C64    1.31612       .     S
C44   C37    1.40357       .     S
C37   C44    1.40357       .     S
C79   C37    1.42092       .     S
C37   C79    1.42092       .     S
C46   C38    1.44336       .     S
C38   C46    1.44336       .     S
C48   C38    1.46877       .     S
C38   C48    1.46877       .     S
C66   C39    1.43593       .     S
C39   C66    1.43593       .     S
H42   N41    0.88067       .     S
N41   H42    0.88067       .     S
H43   N41    0.88011       .     S
N41   H43    0.88011       .     S
C86   N41    1.34639   1_565     S
N41   C86    1.34639   1_545     S
C50   C44    1.37086       .     S
C44   C50    1.37086       .     S
C68   C44    1.49950       .     S
C44   C68    1.49950       .     S
C46   C45    1.47886       .     S
C45   C46    1.47886       .     S
C89   C45    1.42520       .     S
C45   C89    1.42520       .     S
C94   C45    1.35043       .     S
C45   C94    1.35043       .     S
H49   C48    0.94892       .     S
C48   H49    0.94892       .     S
C66   C48    1.33633       .     S
C48   C66    1.33633       .     S
C74   C50    1.43371       .     S
C50   C74    1.43371       .     S
H52   C51    0.94968       .     S
C51   H52    0.94968       .     S
C79   C51    1.36278       .     S
C51   C79    1.36278       .     S
C57   C53    1.51811       .     S
C53   C57    1.51811       .     S
H56   C55    0.94999   1_655     S
C55   H56    0.94999   1_455     S
C71   C55    1.40709       .     S
C55   C71    1.40709       .     S
C69   C57    1.35137       .     S
C57   C69    1.35137       .     S
C87   C57    1.37217       .     S
C57   C87    1.37217       .     S
H59   C58    0.95071       .     S
C58   H59    0.95071       .     S
C62   C58    1.37592       .     S
C58   C62    1.37592       .     S
H61   C60    0.94956       .     S
C60   H61    0.94956       .     S
C68   C60    1.38035       .     S
C60   C68    1.38035       .     S
C87   C60    1.41197       .     S
C60   C87    1.41197       .     S
H63   C62    0.95066       .     S
C62   H63    0.95066       .     S
C96   C65    1.40796   1_455     S
C65   C96    1.40796   1_655     S
H67   C66    0.94991       .     S
C66   H67    0.94991       .     S
C81   C68    1.41513       .     S
C68   C81    1.41513       .     S
H70   C69    0.94997       .     S
C69   H70    0.94997       .     S
C81   C69    1.39311       .     S
C69   C81    1.39311       .     S
H72   C71    0.95095       .     S
C71   H72    0.95095       .     S
C78   C73    1.40699       .     S
C73   C78    1.40699       .     S
C83   C73    1.52079       .     S
C73   C83    1.52079       .     S
C84   C73    1.41817       .     S
C73   C84    1.41817       .     S
H75   C74    0.94982       .     S
C74   H75    0.94982       .     S
C76   C74    1.36103       .     S
C74   C76    1.36103       .     S
H77   C76    0.95082       .     S
C76   H77    0.95082       .     S
C78   C76    1.47806       .     S
C76   C78    1.47806       .     S
H80   C79    0.94917       .     S
C79   H80    0.94917       .     S
H82   C81    0.95115       .     S
C81   H82    0.95115       .     S
C98   C83    1.37221       .     S
C83   C98    1.37221       .     S
C110  C83    1.39670       .     S
C83   C110   1.39670       .     S
C91   C84    1.46346   1_455     S
C84   C91    1.46346   1_655     S
C114  N85    1.32469       .     S
N85   C114   1.32469       .     S
C120  N85    1.34983       .     S
N85   C120   1.34983       .     S
H88   C87    0.94958       .     S
C87   H88    0.94958       .     S
H90   C89    0.94976       .     S
C89   H90    0.94976       .     S
C101  C89    1.35507       .     S
C89   C101   1.35507       .     S
H92   C91    0.95080       .     S
C91   H92    0.95080       .     S
C96   C91    1.36022       .     S
C91   C96    1.36022       .     S
C101  C93    1.37822       .     S
C93   C101   1.37822       .     S
C103  C93    1.37097       .     S
C93   C103   1.37097       .     S
C114  C93    1.50744       .     S
C93   C114   1.50744       .     S
H95   C94    0.94915       .     S
C94   H95    0.94915       .     S
C103  C94    1.34951       .     S
C94   C103   1.34951       .     S
H97   C96    0.94926       .     S
C96   H97    0.94926       .     S
H99   C98    0.95059       .     S
C98   H99    0.95059       .     S
C106  C98    1.35103       .     S
C98   C106   1.35103       .     S
C121  N100   1.34115       .     S
N100  C121   1.34115       .     S
C125  N100   1.34591       .     S
N100  C125   1.34591       .     S
H102  C101   0.94895       .     S
C101  H102   0.94895       .     S
H104  C103   0.94911       .     S
C103  H104   0.94911       .     S
C106  C105   1.36591       .     S
C105  C106   1.36591       .     S
C112  C105   1.32959       .     S
C105  C112   1.32959       .     S
C121  C105   1.48746   1_455     S
C105  C121   1.48746   1_655     S
H107  C106   0.95025       .     S
C106  H107   0.95025       .     S
C120  N108   1.26993       .     S
N108  C120   1.26993       .     S
C130  N108   1.20512       .     S
N108  C130   1.20512       .     S
C125  N109   1.36775       .     S
N109  C125   1.36775       .     S
C129  N109   1.32183       .     S
N109  C129   1.32183       .     S
H111  C110   0.95060       .     S
C110  H111   0.95060       .     S
C112  C110   1.34402       .     S
C110  C112   1.34402       .     S
H113  C112   0.95055   1_455     S
C112  H113   0.95055   1_655     S
N115  C114   1.29907       .     S
C114  N115   1.29907       .     S
C130  N115   1.42752       .     S
N115  C130   1.42752       .     S
H117  N116   0.88121       .     S
N116  H117   0.88121       .     S
H118  N116   0.88003       .     S
N116  H118   0.88003       .     S
C120  N116   1.29620       .     S
N116  C120   1.29620       .     S
C121  N119   1.38639       .     S
N119  C121   1.38639       .     S
C129  N119   1.39806       .     S
N119  C129   1.39806       .     S
H123  N122   0.87881   1_556     S
N122  H123   0.87881   1_554     S
H124  N122   0.88112       .     S
N122  H124   0.88112       .     S
C125  N122   1.26591   1_556     S
N122  C125   1.26591   1_554     S
H127  N126   0.87938   1_554     S
N126  H127   0.87938   1_556     S
H128  N126   0.87959       .     S
N126  H128   0.87959       .     S
C129  N126   1.32897       .     S
N126  C129   1.32897       .     S
N131  C130   1.40409       .     S
C130  N131   1.40409       .     S
H132  N131   0.88071       .     S
N131  H132   0.88071       .     S
H133  N131   0.87959       .     S
N131  H133   0.87959       .     S
C136  O134   1.15323       .     S
O134  C136   1.15323       .     S
C136  N135   1.38154       .     S
N135  C136   1.38154       .     S
C138  N135   1.51959       .     S
N135  C138   1.51959       .     S
C142  N135   1.44306       .     S
N135  C142   1.44306       .     S
H137  C136   0.95042       .     S
C136  H137   0.95042       .     S
H139  C138   0.97910       .     S
C138  H139   0.97910       .     S
H140  C138   0.98018       .     S
C138  H140   0.98018       .     S
H141  C138   0.98022       .     S
C138  H141   0.98022       .     S
H143  C142   0.97999       .     S
C142  H143   0.97999       .     S
H144  C142   0.98018       .     S
C142  H144   0.98018       .     S
H145  C142   0.97948       .     S
C142  H145   0.97948       .     S
