data_I
_chemical_name_common  '/data/user2/wty/HOF/MOFDiff/mofdiff/data/test/235_phof-1nh3'
_cell_length_a 20.61680
_cell_length_b 11.92420
_cell_length_c 16.90140
_cell_angle_alpha 90.00000
_cell_angle_beta  92.06500
_cell_angle_gamma 90.00000
_space_group_name_H-M_alt      'P 1'


loop_
_space_group_symop_operation_xyz
  'x, y, z' 

loop_
_atom_site_label
_atom_site_fract_x
_atom_site_fract_y
_atom_site_fract_z
_atom_site_type_symbol
B0       0.806   0.4743   0.7501     B
B1      0.5588   0.7479   0.7508     B
B2       0.497   0.8549    0.648     B
C3      0.7407    0.545   0.7499     C
C4      0.7151   0.5932   0.6789     C
H5      0.7356  0.58067  0.63022     H
C6      0.6592   0.6595   0.6813     C
H7     0.64431  0.69584    0.634     H
C8      0.6245   0.6747   0.7489     C
C9      0.6517   0.6268   0.8178     C
H10    0.63136  0.63863  0.86665     H
C11     0.7066   0.5637   0.8164     C
H12    0.72211  0.53055  0.86457     H
C13     0.4984   0.9332   0.5699     C
C14     0.4453   0.9976   0.5439     C
H15    0.40705  0.99694  0.57358     H
C16     0.4469   0.0618   0.4766     C
H17    0.40965  0.10433  0.46114     H
O18     0.8354   0.4544   0.8178     O
H19     0.8729  0.42997  0.81019     H
O20     0.8264    0.436   0.6763     O
H21    0.86615  0.42033  0.67975     H
O22        0.5   0.6782     0.75     O
O23     0.5561   0.8245   0.6797     O
O24     0.4407   0.8221   0.6769     O
C25     0.4255    0.779   0.3899     C
H26    0.42415  0.79885  0.33357     H
H27    0.46427  0.73436  0.40245     H
H28    0.45621  0.81364   0.4131     H
N29      0.369   0.7165   0.4075     N
C30      0.391    0.626   0.4558     C
H31    0.35919  0.56464  0.45223     H
H32    0.39601  0.65089  0.51084     H
H33    0.43282  0.59903  0.43753     H
C34      0.331    0.642     0.47     C
H35    0.29765  0.68858  0.49485     H
H36    0.36132  0.61417   0.5113     H
H37     0.3096  0.57872  0.44296     H
C38     0.3325    0.788   0.4562     C
H39    0.31641  0.85198  0.42508     H
H40    0.36026  0.81466  0.50059     H
H41    0.29576  0.74613  0.47665     H
C42     0.3188    0.803    0.366     C
H43    0.34106  0.87401  0.35545     H
H44    0.28274  0.81699  0.40076     H
H45    0.30191  0.77142  0.31566     H
C46     0.3332    0.705    0.335     C
H47    0.29157  0.74382  0.33832     H
H48    0.32533  0.62496   0.3243     H
H49    0.35785  0.73712  0.29207     H
C50     0.3972    0.634   0.3416     C
H51    0.36672  0.57255  0.33154     H
H52    0.43915  0.60436  0.36053     H
H53    0.40282  0.67647  0.29248     H
H54    0.42681  0.84814   0.4217     H
C55     0.4268    0.784    0.452     C
H56    0.45071    0.733  0.48824     H
H57    0.40868  0.84573   0.4824     H
loop_
_geom_bond_atom_site_label_1
_geom_bond_atom_site_label_2
_geom_bond_distance
_geom_bond_site_symmetry_2
_ccdc_geom_bond_type
B0    C3     1.58835       .     S
C3    B0     1.58835       .     S
B0    O18    1.29729       .     S
O18   B0     1.29729       .     S
B0    O20    1.40680       .     S
O20   B0     1.40680       .     S
B1    C8     1.61269       .     S
C8    B1     1.61269       .     S
B1    O22    1.46947       .     S
O22   B1     1.46947       .     S
B1    O23    1.50885       .     S
O23   B1     1.50885       .     S
B2    C13    1.61793       .     S
C13   B2     1.61793       .     S
B2    O23    1.36237       .     S
O23   B2     1.36237       .     S
B2    O24    1.33405       .     S
O24   B2     1.33405       .     S
C3    C4     1.41536       .     S
C4    C3     1.41536       .     S
C3    C11    1.36535       .     S
C11   C3     1.36535       .     S
C4    H5     0.95024       .     S
H5    C4     0.95024       .     S
C4    C6     1.39937       .     S
C6    C4     1.39937       .     S
C6    H7     0.95049       .     S
H7    C6     0.95049       .     S
C6    C8     1.38165       .     S
C8    C6     1.38165       .     S
C8    C9     1.39632       .     S
C9    C8     1.39632       .     S
C9    H10    0.94993       .     S
H10   C9     0.94993       .     S
C9    C11    1.36005       .     S
C11   C9     1.36005       .     S
C11   H12    0.95003       .     S
H12   C11    0.95003       .     S
C13   C14    1.39521       .     S
C14   C13    1.39521       .     S
C14   H15    0.94978       .     S
H15   C14    0.94978       .     S
C14   C16    1.37247   1_565     S
C16   C14    1.37247   1_545     S
C16   H17    0.94910       .     S
H17   C16    0.94910       .     S
O18   H19    0.84042       .     S
H19   O18    0.84042       .     S
O20   H21    0.84052       .     S
H21   O20    0.84052       .     S
C25   H26    0.98046       .     S
H26   C25    0.98046       .     S
C25   H27    0.97725       .     S
H27   C25    0.97725       .     S
C25   H28    0.84104       .     S
H28   C25    0.84104       .     S
C25   N29    1.42329       .     S
N29   C25    1.42329       .     S
C25   H54    0.98400       .     S
H54   C25    0.98400       .     S
C25   C55    1.05065       .     S
C55   C25    1.05065       .     S
H27   C55    1.30196       .     S
C55   H27    1.30196       .     S
H28   C55    0.97650       .     S
C55   H28    0.97650       .     S
N29   C30    1.41774       .     S
C30   N29    1.41774       .     S
N29   C34    1.60575       .     S
C34   N29    1.60575       .     S
N29   C38    1.41961       .     S
C38   N29    1.41961       .     S
N29   C42    1.60458       .     S
C42   N29    1.60458       .     S
N29   C46    1.41417       .     S
C46   N29    1.41417       .     S
N29   C50    1.61028       .     S
C50   N29    1.61028       .     S
N29   C55    1.60280       .     S
C55   N29    1.60280       .     S
C30   H31    0.98297       .     S
H31   C30    0.98297       .     S
C30   H32    0.97837       .     S
H32   C30    0.97837       .     S
C30   H33    0.98048       .     S
H33   C30    0.98048       .     S
C30   C34    1.28280       .     S
C34   C30    1.28280       .     S
C30   H36    1.14699       .     S
H36   C30    1.14699       .     S
H31   C34    1.13644       .     S
C34   H31    1.13644       .     S
C34   H35    0.98917       .     S
H35   C34    0.98917       .     S
C34   H36    0.97810       .     S
H36   C34    0.97810       .     S
C34   H37    0.97896       .     S
H37   C34    0.97896       .     S
C34   C38    1.75691       .     S
C38   C34    1.75691       .     S
C38   H39    0.97783       .     S
H39   C38    0.97783       .     S
C38   H40    0.98008       .     S
H40   C38    0.98008       .     S
C38   H41    0.98048       .     S
H41   C38    0.98048       .     S
C38   C42    1.55076       .     S
C42   C38    1.55076       .     S
H39   C42    1.15938       .     S
C42   H39    1.15938       .     S
C42   H43    0.98248       .     S
H43   C42    0.98248       .     S
C42   H44    0.97834       .     S
H44   C42    0.97834       .     S
C42   H45    0.98265       .     S
H45   C42    0.98265       .     S
C42   C46    1.31887       .     S
C46   C42    1.31887       .     S
C42   H47    1.00652       .     S
H47   C42    1.00652       .     S
H45   C46    1.06540       .     S
C46   H45    1.06540       .     S
H45   H47    0.55346       .     S
H47   H45    0.55346       .     S
C46   H47    0.97854       .     S
H47   C46    0.97854       .     S
C46   H48    0.98378       .     S
H48   C46    0.98378       .     S
C46   H49    0.97877       .     S
H49   C46    0.97877       .     S
C46   C50    1.56831       .     S
C50   C46    1.56831       .     S
C50   H51    0.97622       .     S
H51   C50    0.97622       .     S
C50   H52    0.97742       .     S
H52   C50    0.97742       .     S
C50   H53    0.98288       .     S
H53   C50    0.98288       .     S
H54   C55    0.92044       .     S
C55   H54    0.92044       .     S
C55   H56    0.98297       .     S
H56   C55    0.98297       .     S
C55   H57    0.97939       .     S
H57   C55    0.97939       .     S
C3    B0     1.58835       .     S
B0    C3     1.58835       .     S
O18   B0     1.29729       .     S
B0    O18    1.29729       .     S
O20   B0     1.40680       .     S
B0    O20    1.40680       .     S
C8    B1     1.61269       .     S
B1    C8     1.61269       .     S
O22   B1     1.46947       .     S
B1    O22    1.46947       .     S
O23   B1     1.50885       .     S
B1    O23    1.50885       .     S
C13   B2     1.61793       .     S
B2    C13    1.61793       .     S
O23   B2     1.36237       .     S
B2    O23    1.36237       .     S
O24   B2     1.33405       .     S
B2    O24    1.33405       .     S
C4    C3     1.41536       .     S
C3    C4     1.41536       .     S
C11   C3     1.36535       .     S
C3    C11    1.36535       .     S
H5    C4     0.95024       .     S
C4    H5     0.95024       .     S
C6    C4     1.39937       .     S
C4    C6     1.39937       .     S
H7    C6     0.95049       .     S
C6    H7     0.95049       .     S
C8    C6     1.38165       .     S
C6    C8     1.38165       .     S
C9    C8     1.39632       .     S
C8    C9     1.39632       .     S
H10   C9     0.94993       .     S
C9    H10    0.94993       .     S
C11   C9     1.36005       .     S
C9    C11    1.36005       .     S
H12   C11    0.95003       .     S
C11   H12    0.95003       .     S
C14   C13    1.39521       .     S
C13   C14    1.39521       .     S
H15   C14    0.94978       .     S
C14   H15    0.94978       .     S
C16   C14    1.37247   1_545     S
C14   C16    1.37247   1_565     S
H17   C16    0.94910       .     S
C16   H17    0.94910       .     S
H19   O18    0.84042       .     S
O18   H19    0.84042       .     S
H21   O20    0.84052       .     S
O20   H21    0.84052       .     S
H26   C25    0.98046       .     S
C25   H26    0.98046       .     S
H27   C25    0.97725       .     S
C25   H27    0.97725       .     S
H28   C25    0.84104       .     S
C25   H28    0.84104       .     S
N29   C25    1.42329       .     S
C25   N29    1.42329       .     S
H54   C25    0.98400       .     S
C25   H54    0.98400       .     S
C55   C25    1.05065       .     S
C25   C55    1.05065       .     S
C55   H27    1.30196       .     S
H27   C55    1.30196       .     S
C55   H28    0.97650       .     S
H28   C55    0.97650       .     S
C30   N29    1.41774       .     S
N29   C30    1.41774       .     S
C34   N29    1.60575       .     S
N29   C34    1.60575       .     S
C38   N29    1.41961       .     S
N29   C38    1.41961       .     S
C42   N29    1.60458       .     S
N29   C42    1.60458       .     S
C46   N29    1.41417       .     S
N29   C46    1.41417       .     S
C50   N29    1.61028       .     S
N29   C50    1.61028       .     S
C55   N29    1.60280       .     S
N29   C55    1.60280       .     S
H31   C30    0.98297       .     S
C30   H31    0.98297       .     S
H32   C30    0.97837       .     S
C30   H32    0.97837       .     S
H33   C30    0.98048       .     S
C30   H33    0.98048       .     S
C34   C30    1.28280       .     S
C30   C34    1.28280       .     S
H36   C30    1.14699       .     S
C30   H36    1.14699       .     S
C34   H31    1.13644       .     S
H31   C34    1.13644       .     S
H35   C34    0.98917       .     S
C34   H35    0.98917       .     S
H36   C34    0.97810       .     S
C34   H36    0.97810       .     S
H37   C34    0.97896       .     S
C34   H37    0.97896       .     S
C38   C34    1.75691       .     S
C34   C38    1.75691       .     S
H39   C38    0.97783       .     S
C38   H39    0.97783       .     S
H40   C38    0.98008       .     S
C38   H40    0.98008       .     S
H41   C38    0.98048       .     S
C38   H41    0.98048       .     S
C42   C38    1.55076       .     S
C38   C42    1.55076       .     S
C42   H39    1.15938       .     S
H39   C42    1.15938       .     S
H43   C42    0.98248       .     S
C42   H43    0.98248       .     S
H44   C42    0.97834       .     S
C42   H44    0.97834       .     S
H45   C42    0.98265       .     S
C42   H45    0.98265       .     S
C46   C42    1.31887       .     S
C42   C46    1.31887       .     S
H47   C42    1.00652       .     S
C42   H47    1.00652       .     S
C46   H45    1.06540       .     S
H45   C46    1.06540       .     S
H47   H45    0.55346       .     S
H45   H47    0.55346       .     S
H47   C46    0.97854       .     S
C46   H47    0.97854       .     S
H48   C46    0.98378       .     S
C46   H48    0.98378       .     S
H49   C46    0.97877       .     S
C46   H49    0.97877       .     S
C50   C46    1.56831       .     S
C46   C50    1.56831       .     S
H51   C50    0.97622       .     S
C50   H51    0.97622       .     S
H52   C50    0.97742       .     S
C50   H52    0.97742       .     S
H53   C50    0.98288       .     S
C50   H53    0.98288       .     S
C55   H54    0.92044       .     S
H54   C55    0.92044       .     S
H56   C55    0.98297       .     S
C55   H56    0.98297       .     S
H57   C55    0.97939       .     S
C55   H57    0.97939       .     S
