data_I
_chemical_name_common  '/data/user2/wty/HOF/MOFDiff/mofdiff/data/test/235_phof-1re'
_cell_length_a 20.70390
_cell_length_b 11.74520
_cell_length_c 16.63100
_cell_angle_alpha 90.00000
_cell_angle_beta  92.02900
_cell_angle_gamma 90.00000
_space_group_name_H-M_alt      'P 1'


loop_
_space_group_symop_operation_xyz
  'x, y, z' 

loop_
_atom_site_label
_atom_site_fract_x
_atom_site_fract_y
_atom_site_fract_z
_atom_site_type_symbol
B0     0.00351   0.3481  0.85505     B
B1     0.94176    0.239   0.7505     B
B2     0.69631   0.9577   0.7524     B
C3     0.94639   0.4975  0.04747     C
H4     0.90929  0.49484  0.07943     H
C5      0.9496   0.4277   0.9805     C
H6     0.91447  0.37818  0.96767     H
C7     0.00289   0.4281  0.93131     C
C8     0.87622    0.164   0.7518     C
C9     0.84287   0.1447  0.82174     C
H10    0.85874  0.17775  0.87069     H
C11    0.78714   0.0787  0.82242     C
H12    0.76621  0.06755  0.87172     H
C13    0.76126   0.0286  0.75257     C
C14    0.79459   0.0479  0.68236     C
H15    0.77878  0.01524  0.63326     H
C16    0.85038    0.114  0.68255     C
H17     0.8715  0.12506  0.63337     H
O18    0.06028  0.31508  0.82311     O
O19    0.94503   0.3161  0.82214     O
O20        0.0   0.1679     0.75     O
O21    0.67497  0.92202  0.82394     O
H22    0.63793  0.89361  0.81732     H
O23    0.66511  0.93912  0.68044     O
H24    0.63142  0.90113  0.68755     H
H25    0.95405  0.69063  0.93491     H
C26      0.933   0.7179   0.8848     C
H27    0.97997  0.70807  0.88925     H
H28    0.91974  0.77631  0.92294     H
H29    0.92363  0.65305  0.84919     H
H30    0.96176  0.77114  0.85822     H
C31     0.9301   0.6609    0.742     C
H32    0.90596  0.66412  0.69058     H
H33     0.9763  0.67015   0.7334     H
H34    0.92263  0.58713  0.76794     H
C35     0.9166   0.8592   0.7753     C
H36    0.90242  0.86978  0.71891     H
H37    0.88781  0.90147  0.81007     H
H38    0.96087  0.88749  0.78326     H
N39     0.9121   0.7492   0.8003     N
C40     0.8409   0.7367   0.8039     C
H41     0.8177  0.69563  0.81951     H
H42    0.83061  0.65767  0.81726     H
C43     0.8168    0.767     0.85     C
H44    0.77774  0.76933  0.88157     H
H45    0.81665  0.83151  0.81267     H
H46    0.82614  0.78717  0.84646     H
C47     0.8802    0.858   0.9487     C
H48     0.8784  0.93115  0.92034     H
H49    0.84583  0.85502  0.98762     H
H50    0.92227  0.84991  0.97693     H
N51     0.8725   0.7718   0.8994     N
C52     0.8438    0.706   0.9619     C
H53    0.87898  0.70563  0.00282     H
H54    0.80721  0.74945   0.9817     H
H55    0.83009  0.62755   0.9505     H
H56    0.81902  0.75726  0.75268     H
H57    0.91182  0.64565  0.89717     H
loop_
_geom_bond_atom_site_label_1
_geom_bond_atom_site_label_2
_geom_bond_distance
_geom_bond_site_symmetry_2
_ccdc_geom_bond_type
B0    C7     1.57884       .     S
C7    B0     1.57884       .     S
B0    O18    1.36318       .     S
O18   B0     1.36318       .     S
B0    O19    1.36376   1_455     S
O19   B0     1.36376   1_655     S
B1    C8     1.61858       .     S
C8    B1     1.61858       .     S
B1    O19    1.49614       .     S
O19   B1     1.49614       .     S
B1    O20    1.46700   1_655     S
O20   B1     1.46700   1_455     S
B2    C13    1.58160   1_565     S
C13   B2     1.58160   1_545     S
B2    O21    1.35042       .     S
O21   B2     1.35042       .     S
B2    O23    1.35735       .     S
O23   B2     1.35735       .     S
C3    H4     0.94995       .     S
H4    C3     0.94995       .     S
C3    C5     1.38645   1_554     S
C5    C3     1.38646   1_556     S
C5    H6     0.94965       .     S
H6    C5     0.94965       .     S
C5    C7     1.39660   1_655     S
C7    C5     1.39660   1_455     S
C8    C9     1.39211       .     S
C9    C8     1.39211       .     S
C8    C16    1.38342       .     S
C16   C8     1.38342       .     S
C9    H10    0.94997       .     S
H10   C9     0.94997       .     S
C9    C11    1.39042       .     S
C11   C9     1.39042       .     S
C11   H12    0.94991       .     S
H12   C11    0.94991       .     S
C11   C13    1.39240       .     S
C13   C11    1.39240       .     S
C13   C14    1.39573       .     S
C14   C13    1.39573       .     S
C14   H15    0.94983       .     S
H15   C14    0.94983       .     S
C14   C16    1.39164       .     S
C16   C14    1.39164       .     S
C16   H17    0.94994       .     S
H17   C16    0.94994       .     S
O21   H22    0.83999       .     S
H22   O21    0.83999       .     S
O23   H24    0.83991       .     S
H24   O23    0.83991       .     S
H25   C26    0.98047       .     S
C26   H25    0.98047       .     S
C26   H27    0.97949       .     S
H27   C26    0.97949       .     S
C26   H28    0.98015       .     S
H28   C26    0.98015       .     S
C26   H29    0.97999       .     S
H29   C26    0.97999       .     S
C26   H30    0.97960       .     S
H30   C26    0.97960       .     S
C26   N39    1.50142       .     S
N39   C26    1.50142       .     S
C26   N51    1.43187       .     S
N51   C26    1.43187       .     S
C26   H57    0.98036       .     S
H57   C26    0.98036       .     S
H28   N51    1.04190       .     S
N51   H28    1.04190       .     S
H29   N39    1.40701       .     S
N39   H29    1.40701       .     S
H30   N39    1.40757       .     S
N39   H30    1.40757       .     S
C31   H32    0.97584       .     S
H32   C31    0.97584       .     S
C31   H33    0.97820       .     S
H33   C31    0.97820       .     S
C31   H34    0.98259       .     S
H34   C31    0.98259       .     S
C31   N39    1.47653       .     S
N39   C31    1.47653       .     S
C35   H36    0.98064       .     S
H36   C35    0.98064       .     S
C35   H37    0.98009       .     S
H37   C35    0.98009       .     S
C35   H38    0.97950       .     S
H38   C35    0.97950       .     S
C35   N39    1.36143       .     S
N39   C35    1.36143       .     S
N39   C40    1.48473       .     S
C40   N39    1.48473       .     S
C40   H41    0.73459       .     S
H41   C40    0.73459       .     S
C40   H42    0.97965       .     S
H42   C40    0.97965       .     S
C40   C43    0.99525       .     S
C43   C40    0.99525       .     S
C40   H45    1.23230       .     S
H45   C40    1.23230       .     S
C40   H46    0.98035       .     S
H46   C40    0.98035       .     S
C40   H56    0.98073       .     S
H56   C40    0.98073       .     S
H41   H42    0.52185       .     S
H42   H41    0.52185       .     S
H41   C43    0.98021       .     S
C43   H41    0.98021       .     S
C43   H44    0.98003       .     S
H44   C43    0.98003       .     S
C43   H45    0.97949       .     S
H45   C43    0.97949       .     S
C43   H46    0.31271       .     S
H46   C43    0.31271       .     S
C43   N51    1.39318       .     S
N51   C43    1.39318       .     S
H46   N51    1.29198       .     S
N51   H46    1.29198       .     S
C47   H48    0.98019       .     S
H48   C47    0.98019       .     S
C47   H49    0.97937       .     S
H49   C47    0.97937       .     S
C47   H50    0.97937       .     S
H50   C47    0.97937       .     S
C47   N51    1.30898       .     S
N51   C47    1.30898       .     S
N51   C52    1.44032       .     S
C52   N51    1.44032       .     S
C52   H53    0.97907   1_556     S
H53   C52    0.97907   1_554     S
C52   H54    0.98001       .     S
H54   C52    0.98001       .     S
C52   H55    0.98067       .     S
H55   C52    0.98067       .     S
C7    B0     1.57884       .     S
B0    C7     1.57884       .     S
O18   B0     1.36318       .     S
B0    O18    1.36318       .     S
O19   B0     1.36376   1_655     S
B0    O19    1.36376   1_455     S
C8    B1     1.61858       .     S
B1    C8     1.61858       .     S
O19   B1     1.49614       .     S
B1    O19    1.49614       .     S
O20   B1     1.46700   1_455     S
B1    O20    1.46700   1_655     S
C13   B2     1.58160   1_545     S
B2    C13    1.58160   1_565     S
O21   B2     1.35042       .     S
B2    O21    1.35042       .     S
O23   B2     1.35735       .     S
B2    O23    1.35735       .     S
H4    C3     0.94995       .     S
C3    H4     0.94995       .     S
C5    C3     1.38646   1_556     S
C3    C5     1.38645   1_554     S
H6    C5     0.94965       .     S
C5    H6     0.94965       .     S
C7    C5     1.39660   1_455     S
C5    C7     1.39660   1_655     S
C9    C8     1.39211       .     S
C8    C9     1.39211       .     S
C16   C8     1.38342       .     S
C8    C16    1.38342       .     S
H10   C9     0.94997       .     S
C9    H10    0.94997       .     S
C11   C9     1.39042       .     S
C9    C11    1.39042       .     S
H12   C11    0.94991       .     S
C11   H12    0.94991       .     S
C13   C11    1.39240       .     S
C11   C13    1.39240       .     S
C14   C13    1.39573       .     S
C13   C14    1.39573       .     S
H15   C14    0.94983       .     S
C14   H15    0.94983       .     S
C16   C14    1.39164       .     S
C14   C16    1.39164       .     S
H17   C16    0.94994       .     S
C16   H17    0.94994       .     S
H22   O21    0.83999       .     S
O21   H22    0.83999       .     S
H24   O23    0.83991       .     S
O23   H24    0.83991       .     S
C26   H25    0.98047       .     S
H25   C26    0.98047       .     S
H27   C26    0.97949       .     S
C26   H27    0.97949       .     S
H28   C26    0.98015       .     S
C26   H28    0.98015       .     S
H29   C26    0.97999       .     S
C26   H29    0.97999       .     S
H30   C26    0.97960       .     S
C26   H30    0.97960       .     S
N39   C26    1.50142       .     S
C26   N39    1.50142       .     S
N51   C26    1.43187       .     S
C26   N51    1.43187       .     S
H57   C26    0.98036       .     S
C26   H57    0.98036       .     S
N51   H28    1.04190       .     S
H28   N51    1.04190       .     S
N39   H29    1.40701       .     S
H29   N39    1.40701       .     S
N39   H30    1.40757       .     S
H30   N39    1.40757       .     S
H32   C31    0.97584       .     S
C31   H32    0.97584       .     S
H33   C31    0.97820       .     S
C31   H33    0.97820       .     S
H34   C31    0.98259       .     S
C31   H34    0.98259       .     S
N39   C31    1.47653       .     S
C31   N39    1.47653       .     S
H36   C35    0.98064       .     S
C35   H36    0.98064       .     S
H37   C35    0.98009       .     S
C35   H37    0.98009       .     S
H38   C35    0.97950       .     S
C35   H38    0.97950       .     S
N39   C35    1.36143       .     S
C35   N39    1.36143       .     S
C40   N39    1.48473       .     S
N39   C40    1.48473       .     S
H41   C40    0.73459       .     S
C40   H41    0.73459       .     S
H42   C40    0.97965       .     S
C40   H42    0.97965       .     S
C43   C40    0.99525       .     S
C40   C43    0.99525       .     S
H45   C40    1.23230       .     S
C40   H45    1.23230       .     S
H46   C40    0.98035       .     S
C40   H46    0.98035       .     S
H56   C40    0.98073       .     S
C40   H56    0.98073       .     S
H42   H41    0.52185       .     S
H41   H42    0.52185       .     S
C43   H41    0.98021       .     S
H41   C43    0.98021       .     S
H44   C43    0.98003       .     S
C43   H44    0.98003       .     S
H45   C43    0.97949       .     S
C43   H45    0.97949       .     S
H46   C43    0.31271       .     S
C43   H46    0.31271       .     S
N51   C43    1.39318       .     S
C43   N51    1.39318       .     S
N51   H46    1.29198       .     S
H46   N51    1.29198       .     S
H48   C47    0.98019       .     S
C47   H48    0.98019       .     S
H49   C47    0.97937       .     S
C47   H49    0.97937       .     S
H50   C47    0.97937       .     S
C47   H50    0.97937       .     S
N51   C47    1.30898       .     S
C47   N51    1.30898       .     S
C52   N51    1.44032       .     S
N51   C52    1.44032       .     S
H53   C52    0.97907   1_554     S
C52   H53    0.97907   1_556     S
H54   C52    0.98001       .     S
C52   H54    0.98001       .     S
H55   C52    0.98067       .     S
C52   H55    0.98067       .     S
