data_I
_chemical_name_common  '/data/user2/wty/HOF/MOFDiff/mofdiff/data/test/235_phof-1'
_cell_length_a 20.67820
_cell_length_b 11.79100
_cell_length_c 16.57820
_cell_angle_alpha 90.00000
_cell_angle_beta  91.73700
_cell_angle_gamma 90.00000
_space_group_name_H-M_alt      'P 1'


loop_
_space_group_symop_operation_xyz
  'x, y, z' 

loop_
_atom_site_label
_atom_site_fract_x
_atom_site_fract_y
_atom_site_fract_z
_atom_site_type_symbol
B0     0.49666   0.8476   0.6446     B
B1      0.5584   0.7388   0.7497     B
B2     0.80373   0.4576   0.7485     B
C3     0.44954   0.0716   0.4808     C
H4     0.41435  0.12105  0.46845     H
C5     0.44602   0.0017   0.5474     C
H6     0.40864  0.00325  0.57931     H
C7     0.49779   0.9275   0.5684     C
C8     0.62366    0.664   0.7484     C
C9      0.6497   0.6142   0.8183     C
H10    0.62855  0.62547  0.86772     H
C11    0.70544   0.5488   0.8182     C
H12    0.72136  0.51696  0.86759     H
C13    0.73865   0.5285    0.748     C
C14    0.71321   0.5783   0.6775     C
H15    0.73472  0.56758  0.62827     H
C16    0.65723   0.6429   0.6779     C
H17    0.64102  0.67398  0.62842     H
O18    0.44001  0.81473  0.67745     O
O19    0.55545  0.81527  0.67742     O
O20        0.5   0.6681     0.75     O
O21    0.82549   0.4216   0.6764     O
H22    0.86536  0.40826  0.68075     H
O23    0.83461   0.4386  0.82038     O
H24    0.86648  0.39581  0.81364     H
H25    0.51138  0.24442  0.63034     H
C26     0.5573   0.2384    0.618     C
H27    0.56556  0.16455  0.59326     H
C28     0.5797   0.1839   0.6145     C
H29    0.54688  0.19424  0.65526     H
C30     0.5672    0.171     0.76     C
H31    0.52156  0.19037  0.76619     H
H32    0.57076  0.09242  0.74161     H
H33    0.59061  0.18003  0.81178     H
C34     0.5866   0.3663   0.7147     C
H35    0.54153  0.38837  0.72249     H
H36    0.61193  0.37927  0.76479     H
H37    0.60449  0.41186  0.67126     H
N38     0.5916   0.2489   0.6979     N
C39     0.6665   0.2515   0.6765     C
H40    0.70084  0.30855  0.68161     H
H41    0.64036   0.2531  0.72479     H
H42    0.67756   0.1804  0.64958     H
H43    0.67469  0.31543  0.64048     H
H44     0.6859  0.17615  0.67087     H
H45    0.56873  0.29896  0.58051     H
C46     0.6192   0.3555   0.5513     C
H47    0.61358  0.32308  0.49706     H
H48    0.58072  0.39932  0.56437     H
H49    0.65722  0.40526  0.55297     H
C50     0.6396   0.1981    0.524     C
H51    0.67658  0.23942  0.50324     H
H52    0.65404  0.12436  0.54515     H
H53    0.60708   0.1866  0.48069     H
N54     0.6287   0.2736   0.5973     N
H55    0.69315  0.25964   0.7261     H
H56    0.55866  0.17978  0.56086     H
H57     0.6035  0.11335  0.62545     H
loop_
_geom_bond_atom_site_label_1
_geom_bond_atom_site_label_2
_geom_bond_distance
_geom_bond_site_symmetry_2
_ccdc_geom_bond_type
B0    C7     1.57661       .     S
C7    B0     1.57661       .     S
B0    O18    1.36297       .     S
O18   B0     1.36297       .     S
B0    O19    1.37081       .     S
O19   B0     1.37081       .     S
B1    C8     1.61280       .     S
C8    B1     1.61280       .     S
B1    O19    1.49938       .     S
O19   B1     1.49938       .     S
B1    O20    1.46753       .     S
O20   B1     1.46753       .     S
B2    C13    1.58407       .     S
C13   B2     1.58407       .     S
B2    O21    1.35792       .     S
O21   B2     1.35792       .     S
B2    O23    1.35344       .     S
O23   B2     1.35344       .     S
C3    H4     0.94992       .     S
H4    C3     0.94992       .     S
C3    C5     1.38149       .     S
C5    C3     1.38149       .     S
C5    H6     0.94996       .     S
H6    C5     0.94996       .     S
C5    C7     1.41776   1_545     S
C7    C5     1.41776   1_565     S
C8    C9     1.39275       .     S
C9    C8     1.39275       .     S
C8    C16    1.39963       .     S
C16   C8     1.39963       .     S
C9    H10    0.94968       .     S
H10   C9     0.94968       .     S
C9    C11    1.38681       .     S
C11   C9     1.38681       .     S
C11   H12    0.95048       .     S
H12   C11    0.95048       .     S
C11   C13    1.38987       .     S
C13   C11    1.38987       .     S
C13   C14    1.39652       .     S
C14   C13    1.39652       .     S
C14   H15    0.94969       .     S
H15   C14    0.94969       .     S
C14   C16    1.38588       .     S
C16   C14    1.38588       .     S
C16   H17    0.95019       .     S
H17   C16    0.95019       .     S
O21   H22    0.84026       .     S
H22   O21    0.84026       .     S
O23   H24    0.84012       .     S
H24   O23    0.84012       .     S
H25   C26    0.97995       .     S
C26   H25    0.97995       .     S
C26   H27    0.97973       .     S
H27   C26    0.97973       .     S
C26   C28    0.79529       .     S
C28   C26    0.79529       .     S
C26   H29    0.84094       .     S
H29   C26    0.84094       .     S
C26   N38    1.48862       .     S
N38   C26    1.48862       .     S
C26   H45    0.98027       .     S
H45   C26    0.98027       .     S
C26   N54    1.58132       .     S
N54   C26    1.58132       .     S
C26   H56    1.17366       .     S
H56   C26    1.17366       .     S
H27   C28    0.50527       .     S
C28   H27    0.50527       .     S
H27   H56    0.58006       .     S
H56   H27    0.58006       .     S
C28   H29    0.97972       .     S
H29   C28    0.97972       .     S
C28   N38    1.59341       .     S
N38   C28    1.59341       .     S
C28   N54    1.49803       .     S
N54   C28    1.49803       .     S
C28   H56    0.97927       .     S
H56   C28    0.97927       .     S
C28   H57    0.98068       .     S
H57   C28    0.98068       .     S
H29   N38    1.31551       .     S
N38   H29    1.31551       .     S
C30   H31    0.97941       .     S
H31   C30    0.97941       .     S
C30   H32    0.97888       .     S
H32   C30    0.97888       .     S
C30   H33    0.97845       .     S
H33   C30    0.97845       .     S
C30   N38    1.47974       .     S
N38   C30    1.47974       .     S
C34   H35    0.97993       .     S
H35   C34    0.97993       .     S
C34   H36    0.98027       .     S
H36   C34    0.98027       .     S
C34   H37    0.97990       .     S
H37   C34    0.97990       .     S
C34   N38    1.41640       .     S
N38   C34    1.41640       .     S
N38   C39    1.59965       .     S
C39   N38    1.59965       .     S
N38   H41    1.09112       .     S
H41   N38    1.09112       .     S
C39   H40    0.97992       .     S
H40   C39    0.97992       .     S
C39   H41    0.97962       .     S
H41   C39    0.97962       .     S
C39   H42    0.98004       .     S
H42   C39    0.98004       .     S
C39   H43    0.97960       .     S
H43   C39    0.97960       .     S
C39   H44    0.98044       .     S
H44   C39    0.98044       .     S
C39   N54    1.52990       .     S
N54   C39    1.52990       .     S
C39   H55    0.98060       .     S
H55   C39    0.98060       .     S
H42   H44    0.39133       .     S
H44   H42    0.39133       .     S
H43   N54    1.27233       .     S
N54   H43    1.27233       .     S
H45   N54    1.29759       .     S
N54   H45    1.29759       .     S
C46   H47    0.98074       .     S
H47   C46    0.98074       .     S
C46   H48    0.97852       .     S
H48   C46    0.97852       .     S
C46   H49    0.98070       .     S
H49   C46    0.98070       .     S
C46   N54    1.24242       .     S
N54   C46    1.24242       .     S
C50   H51    0.97801       .     S
H51   C50    0.97801       .     S
C50   H52    0.98068       .     S
H52   C50    0.98068       .     S
C50   H53    0.97818       .     S
H53   C50    0.97818       .     S
C50   N54    1.52858       .     S
N54   C50    1.52858       .     S
C7    B0     1.57661       .     S
B0    C7     1.57661       .     S
O18   B0     1.36297       .     S
B0    O18    1.36297       .     S
O19   B0     1.37081       .     S
B0    O19    1.37081       .     S
C8    B1     1.61280       .     S
B1    C8     1.61280       .     S
O19   B1     1.49938       .     S
B1    O19    1.49938       .     S
O20   B1     1.46753       .     S
B1    O20    1.46753       .     S
C13   B2     1.58407       .     S
B2    C13    1.58407       .     S
O21   B2     1.35792       .     S
B2    O21    1.35792       .     S
O23   B2     1.35344       .     S
B2    O23    1.35344       .     S
H4    C3     0.94992       .     S
C3    H4     0.94992       .     S
C5    C3     1.38149       .     S
C3    C5     1.38149       .     S
H6    C5     0.94996       .     S
C5    H6     0.94996       .     S
C7    C5     1.41776   1_565     S
C5    C7     1.41776   1_545     S
C9    C8     1.39275       .     S
C8    C9     1.39275       .     S
C16   C8     1.39963       .     S
C8    C16    1.39963       .     S
H10   C9     0.94968       .     S
C9    H10    0.94968       .     S
C11   C9     1.38681       .     S
C9    C11    1.38681       .     S
H12   C11    0.95048       .     S
C11   H12    0.95048       .     S
C13   C11    1.38987       .     S
C11   C13    1.38987       .     S
C14   C13    1.39652       .     S
C13   C14    1.39652       .     S
H15   C14    0.94969       .     S
C14   H15    0.94969       .     S
C16   C14    1.38588       .     S
C14   C16    1.38588       .     S
H17   C16    0.95019       .     S
C16   H17    0.95019       .     S
H22   O21    0.84026       .     S
O21   H22    0.84026       .     S
H24   O23    0.84012       .     S
O23   H24    0.84012       .     S
C26   H25    0.97995       .     S
H25   C26    0.97995       .     S
H27   C26    0.97973       .     S
C26   H27    0.97973       .     S
C28   C26    0.79529       .     S
C26   C28    0.79529       .     S
H29   C26    0.84094       .     S
C26   H29    0.84094       .     S
N38   C26    1.48862       .     S
C26   N38    1.48862       .     S
H45   C26    0.98027       .     S
C26   H45    0.98027       .     S
N54   C26    1.58132       .     S
C26   N54    1.58132       .     S
H56   C26    1.17366       .     S
C26   H56    1.17366       .     S
C28   H27    0.50527       .     S
H27   C28    0.50527       .     S
H56   H27    0.58006       .     S
H27   H56    0.58006       .     S
H29   C28    0.97972       .     S
C28   H29    0.97972       .     S
N38   C28    1.59341       .     S
C28   N38    1.59341       .     S
N54   C28    1.49803       .     S
C28   N54    1.49803       .     S
H56   C28    0.97927       .     S
C28   H56    0.97927       .     S
H57   C28    0.98068       .     S
C28   H57    0.98068       .     S
N38   H29    1.31551       .     S
H29   N38    1.31551       .     S
H31   C30    0.97941       .     S
C30   H31    0.97941       .     S
H32   C30    0.97888       .     S
C30   H32    0.97888       .     S
H33   C30    0.97845       .     S
C30   H33    0.97845       .     S
N38   C30    1.47974       .     S
C30   N38    1.47974       .     S
H35   C34    0.97993       .     S
C34   H35    0.97993       .     S
H36   C34    0.98027       .     S
C34   H36    0.98027       .     S
H37   C34    0.97990       .     S
C34   H37    0.97990       .     S
N38   C34    1.41640       .     S
C34   N38    1.41640       .     S
C39   N38    1.59965       .     S
N38   C39    1.59965       .     S
H41   N38    1.09112       .     S
N38   H41    1.09112       .     S
H40   C39    0.97992       .     S
C39   H40    0.97992       .     S
H41   C39    0.97962       .     S
C39   H41    0.97962       .     S
H42   C39    0.98004       .     S
C39   H42    0.98004       .     S
H43   C39    0.97960       .     S
C39   H43    0.97960       .     S
H44   C39    0.98044       .     S
C39   H44    0.98044       .     S
N54   C39    1.52990       .     S
C39   N54    1.52990       .     S
H55   C39    0.98060       .     S
C39   H55    0.98060       .     S
H44   H42    0.39133       .     S
H42   H44    0.39133       .     S
N54   H43    1.27233       .     S
H43   N54    1.27233       .     S
N54   H45    1.29759       .     S
H45   N54    1.29759       .     S
H47   C46    0.98074       .     S
C46   H47    0.98074       .     S
H48   C46    0.97852       .     S
C46   H48    0.97852       .     S
H49   C46    0.98070       .     S
C46   H49    0.98070       .     S
N54   C46    1.24242       .     S
C46   N54    1.24242       .     S
H51   C50    0.97801       .     S
C50   H51    0.97801       .     S
H52   C50    0.98068       .     S
C50   H52    0.98068       .     S
H53   C50    0.97818       .     S
C50   H53    0.97818       .     S
N54   C50    1.52858       .     S
C50   N54    1.52858       .     S
