data_I
_chemical_name_common  '/data/user2/wty/HOF/MOFDiff/mofdiff/data/test/243-hof-fju-40'
_cell_length_a 13.13510
_cell_length_b  6.39360
_cell_length_c 50.15010
_cell_angle_alpha 90.00000
_cell_angle_beta  92.58400
_cell_angle_gamma 90.00000
_space_group_name_H-M_alt      'P 1'


loop_
_space_group_symop_operation_xyz
  'x, y, z' 

loop_
_atom_site_label
_atom_site_fract_x
_atom_site_fract_y
_atom_site_fract_z
_atom_site_type_symbol
F0     0.98075   0.0609  0.77545     F
F1     0.91052   0.6247  0.65504     F
F2     0.25049   0.0794  0.57226     F
F3      0.2215   0.6549  0.46237     F
C4     0.56707   0.3266  0.63247     C
C5     0.62729   0.2397  0.65581     C
C6     0.60413   0.3346  0.60784     C
C7     0.55023   0.4483  0.58527     C
C8     0.81207   0.9546  0.71853     C
C9     0.70182   0.2309   0.6011     C
C10    0.72246   0.3207  0.66328     C
H11     0.7475   0.4351   0.6542     H
C12    0.45975   0.7501   0.5673     C
H13     0.4352   0.8848   0.5697     H
C14    0.44286   0.6526  0.54272     C
C15     0.7807   0.2324  0.68425     C
H16     0.8433   0.2913   0.6894     H
C17     0.3855   0.7561  0.52021     C
C18    0.51223    0.651  0.58814     C
H19     0.5225   0.7201   0.6044     H
C20    0.77165   0.3356  0.58578     C
H21     0.7563   0.4691   0.5794     H
C22    0.46458   0.4115  0.63829     C
C23    0.74658   0.0581  0.69758     C
C24     0.1784   0.7119  0.64975     C
C25    0.88893   0.0447  0.58865     C
C26    0.28382   0.4412  0.62791     C
H27     0.2258   0.3964   0.6182     H
C28    0.86376   0.2442   0.5798     C
H29     0.9093    0.318   0.5697     H
N30     0.8815   0.6321  0.73652     N
C31    0.36311   0.6601  0.66161     C
H32     0.3592   0.7655   0.6743     H
C33    0.64964   0.9803  0.69057     C
H34     0.6248    0.865   0.6995     H
C35    0.59007   0.0738  0.67035     C
H36     0.5244   0.0248   0.6665     H
N37     0.0903   0.0413  0.65486     N
C38     0.4552   0.5618  0.65792     C
H39     0.5118   0.5971   0.6688     H
C40    0.53673   0.3544  0.56041     C
H41     0.5641   0.2224   0.5577     H
C42    0.48337   0.4533   0.5396     C
H43     0.4744   0.3855   0.5233     H
C44    0.37673    0.347  0.62373     C
H45     0.3807   0.2404   0.6112     H
C46    0.27607   0.6021  0.64641     C
N47     0.3435   0.0789   0.4971     N
C48    0.98869   0.9488  0.58298     C
C49    0.81755   0.9373  0.60311     C
H50     0.8319   0.8018   0.6089     H
N51      0.086   0.6363  0.57584     N
C52    0.72564   0.0278  0.60907     C
H53     0.6791   0.9516   0.6186     H
C54     0.8672   0.0678  0.73792     C
H55     0.8641    0.213   0.7385     H
C56     0.1641   0.9656  0.57522     C
C57    0.07578   0.0709  0.57994     C
H58     0.0739   0.2161   0.5811     H
C59     0.3277   0.6448  0.50134     C
H60     0.3214   0.5002   0.5024     H
C61     0.1752   0.9296  0.65191     C
H62     0.2364    0.002   0.6513     H
C63     0.9264   0.9559  0.75611     C
C64     0.0865   0.6051  0.65046     C
H65     0.0833   0.4605   0.6486     H
C66     0.9332   0.7422  0.75512     C
H67     0.9749   0.6727   0.7677     H
C68     0.0006   0.7222  0.65397     C
C69     0.8219   0.7379  0.71909     C
H70      0.784   0.6614   0.7064     H
C71     0.0036   0.9345  0.65617     C
H72     0.9434    0.007   0.6587     H
C73       0.28   0.7577  0.48099     C
C74     0.9992   0.7358  0.58044     C
H75     0.9411   0.6545   0.5821     H
C76     0.1687   0.7531  0.57315     C
H77     0.2304   0.6891   0.5698     H
C78     0.2901    0.969  0.47887     C
H79     0.2589   0.0378   0.4643     H
C80     0.3894   0.9712  0.51699     C
H81     0.4273   0.0469   0.5298     H
N82     0.2063   0.1889  0.71686     N
O83     0.3565   0.0525  0.70802     O
C84     0.2967   0.2053  0.70821     C
H85     0.3183    0.334   0.7019     H
C86     0.1692   0.9866  0.72495     C
H87     0.1098   0.9501   0.7141     H
H88     0.1519   0.9922   0.7433     H
H89     0.2212   0.8833   0.7228     H
C90     0.1354   0.3615  0.71722     C
H91     0.1102   0.3758   0.7348     H
H92     0.0795   0.3354   0.7047     H
H93     0.1694   0.4881   0.7124     H
loop_
_geom_bond_atom_site_label_1
_geom_bond_atom_site_label_2
_geom_bond_distance
_geom_bond_site_symmetry_2
_ccdc_geom_bond_type
F0    C63    1.35595   1_545     S
C63   F0     1.35595   1_565     S
F1    C68    1.34059   1_655     S
C68   F1     1.34059   1_455     S
F2    C56    1.36171   1_545     S
C56   F2     1.36171   1_565     S
F3    C73    1.35267       .     S
C73   F3     1.35267       .     S
C4    C5     1.49029       .     S
C5    C4     1.49029       .     S
C4    C6     1.34889       .     S
C6    C4     1.34889       .     S
C4    C22    1.49250       .     S
C22   C4     1.49250       .     S
C5    C10    1.38888       .     S
C10   C5     1.38888       .     S
C5    C35    1.38850       .     S
C35   C5     1.38850       .     S
C6    C7     1.49620       .     S
C7    C6     1.49620       .     S
C6    C9     1.49649       .     S
C9    C6     1.49649       .     S
C7    C18    1.39854       .     S
C18   C7     1.39854       .     S
C7    C40    1.38790       .     S
C40   C7     1.38790       .     S
C8    C23    1.48332   1_565     S
C23   C8     1.48332   1_545     S
C8    C54    1.38935   1_565     S
C54   C8     1.38935   1_545     S
C8    C69    1.39166       .     S
C69   C8     1.39166       .     S
C9    C20    1.39400       .     S
C20   C9     1.39400       .     S
C9    C52    1.39017       .     S
C52   C9     1.39017       .     S
C10   H11    0.92953       .     S
H11   C10    0.92953       .     S
C10   C15    1.39189       .     S
C15   C10    1.39189       .     S
C12   H13    0.92934       .     S
H13   C12    0.92934       .     S
C12   C14    1.39021       .     S
C14   C12    1.39021       .     S
C12   C18    1.37984       .     S
C18   C12    1.37984       .     S
C14   C17    1.48433       .     S
C17   C14    1.48433       .     S
C14   C42    1.39242       .     S
C42   C14    1.39242       .     S
C15   H16    0.93031       .     S
H16   C15    0.93031       .     S
C15   C23    1.38443       .     S
C23   C15    1.38443       .     S
C17   C59    1.38331       .     S
C59   C17    1.38331       .     S
C17   C80    1.38593       .     S
C80   C17    1.38593       .     S
C18   H19    0.93188       .     S
H19   C18    0.93188       .     S
C20   H21    0.93046       .     S
H21   C20    0.93046       .     S
C20   C28    1.38850       .     S
C28   C20    1.38850       .     S
C22   C38    1.38517       .     S
C38   C22    1.38517       .     S
C22   C44    1.39957       .     S
C44   C22    1.39957       .     S
C23   C33    1.39714   1_545     S
C33   C23    1.39714   1_565     S
C24   C46    1.47855       .     S
C46   C24    1.47855       .     S
C24   C61    1.39688       .     S
C61   C24    1.39688       .     S
C24   C64    1.38872       .     S
C64   C24    1.38872       .     S
C25   C28    1.38565       .     S
C28   C25    1.38565       .     S
C25   C48    1.48575   1_545     S
C48   C25    1.48575   1_565     S
C25   C49    1.39203   1_545     S
C49   C25    1.39203   1_565     S
C26   H27    0.93086       .     S
H27   C26    0.93086       .     S
C26   C44    1.38531       .     S
C44   C26    1.38531       .     S
C26   C46    1.39210       .     S
C46   C26    1.39210       .     S
C28   H29    0.92969       .     S
H29   C28    0.92969       .     S
N30   C66    1.33029       .     S
C66   N30    1.33029       .     S
N30   C69    1.33147       .     S
C69   N30    1.33147       .     S
C31   H32    0.92990       .     S
H32   C31    0.92990       .     S
C31   C38    1.38296       .     S
C38   C31    1.38296       .     S
C31   C46    1.39538       .     S
C46   C31    1.39538       .     S
C33   H34    0.92932       .     S
H34   C33    0.92932       .     S
C33   C35    1.38792   1_565     S
C35   C33    1.38792   1_545     S
C35   H36    0.92976       .     S
H36   C35    0.92976       .     S
N37   C61    1.33806   1_545     S
C61   N37    1.33806   1_565     S
N37   C71    1.33200   1_545     S
C71   N37    1.33200   1_565     S
C38   H39    0.92994       .     S
H39   C38    0.92994       .     S
C40   H41    0.92972       .     S
H41   C40    0.92972       .     S
C40   C42    1.38358       .     S
C42   C40    1.38358       .     S
C42   H43    0.92808       .     S
H43   C42    0.92808       .     S
C44   H45    0.93009       .     S
H45   C44    0.93009       .     S
N47   C78    1.32805   1_545     S
C78   N47    1.32805   1_565     S
N47   C80    1.33357   1_545     S
C80   N47    1.33357   1_565     S
C48   C57    1.39892   1_665     S
C57   C48    1.39892   1_445     S
C48   C74    1.37531       .     S
C74   C48    1.37531       .     S
C49   H50    0.93029       .     S
H50   C49    0.93029       .     S
C49   C52    1.38352   1_565     S
C52   C49    1.38352   1_545     S
N51   C74    1.33474   1_455     S
C74   N51    1.33474   1_655     S
N51   C76    1.33006       .     S
C76   N51    1.33006       .     S
C52   H53    0.93049   1_545     S
H53   C52    0.93049   1_565     S
C54   H55    0.92976       .     S
H55   C54    0.92976       .     S
C54   C63    1.37285   1_545     S
C63   C54    1.37285   1_565     S
C56   C57    1.37108   1_565     S
C57   C56    1.37108   1_545     S
C56   C76    1.36415       .     S
C76   C56    1.36415       .     S
C57   H58    0.93057       .     S
H58   C57    0.93057       .     S
C59   H60    0.92995       .     S
H60   C59    0.92995       .     S
C59   C73    1.37749       .     S
C73   C59    1.37749       .     S
C61   H62    0.92932   1_565     S
H62   C61    0.92932   1_545     S
C63   C66    1.37027       .     S
C66   C63    1.37027       .     S
C64   H65    0.92997       .     S
H65   C64    0.92997       .     S
C64   C68    1.37204       .     S
C68   C64    1.37204       .     S
C66   H67    0.92969       .     S
H67   C66    0.92969       .     S
C68   C71    1.36226       .     S
C71   C68    1.36226       .     S
C69   H70    0.92925       .     S
H70   C69    0.92925       .     S
C71   H72    0.93020   1_465     S
H72   C71    0.93020   1_645     S
C73   C78    1.36209       .     S
C78   C73    1.36209       .     S
C74   H75    0.93019       .     S
H75   C74    0.93019       .     S
C76   H77    0.92992       .     S
H77   C76    0.92992       .     S
C78   H79    0.93185   1_565     S
H79   C78    0.93185   1_545     S
C80   H81    0.93056   1_565     S
H81   C80    0.93056   1_545     S
N82   C84    1.28669       .     S
C84   N82    1.28669       .     S
N82   C86    1.44667   1_545     S
C86   N82    1.44667   1_565     S
N82   C90    1.44462       .     S
C90   N82    1.44462       .     S
O83   C84    1.25386       .     S
C84   O83    1.25386       .     S
C84   H85    0.93050       .     S
H85   C84    0.93050       .     S
C86   H87    0.95969       .     S
H87   C86    0.95969       .     S
C86   H88    0.95846       .     S
H88   C86    0.95846       .     S
C86   H89    0.95968       .     S
H89   C86    0.95968       .     S
C90   H91    0.95996       .     S
H91   C90    0.95996       .     S
C90   H92    0.95898       .     S
H92   C90    0.95898       .     S
C90   H93    0.96062       .     S
H93   C90    0.96062       .     S
C63   F0     1.35595   1_565     S
F0    C63    1.35595   1_545     S
C68   F1     1.34059   1_455     S
F1    C68    1.34059   1_655     S
C56   F2     1.36171   1_565     S
F2    C56    1.36171   1_545     S
C73   F3     1.35267       .     S
F3    C73    1.35267       .     S
C5    C4     1.49029       .     S
C4    C5     1.49029       .     S
C6    C4     1.34889       .     S
C4    C6     1.34889       .     S
C22   C4     1.49250       .     S
C4    C22    1.49250       .     S
C10   C5     1.38888       .     S
C5    C10    1.38888       .     S
C35   C5     1.38850       .     S
C5    C35    1.38850       .     S
C7    C6     1.49620       .     S
C6    C7     1.49620       .     S
C9    C6     1.49649       .     S
C6    C9     1.49649       .     S
C18   C7     1.39854       .     S
C7    C18    1.39854       .     S
C40   C7     1.38790       .     S
C7    C40    1.38790       .     S
C23   C8     1.48332   1_545     S
C8    C23    1.48332   1_565     S
C54   C8     1.38935   1_545     S
C8    C54    1.38935   1_565     S
C69   C8     1.39166       .     S
C8    C69    1.39166       .     S
C20   C9     1.39400       .     S
C9    C20    1.39400       .     S
C52   C9     1.39017       .     S
C9    C52    1.39017       .     S
H11   C10    0.92953       .     S
C10   H11    0.92953       .     S
C15   C10    1.39189       .     S
C10   C15    1.39189       .     S
H13   C12    0.92934       .     S
C12   H13    0.92934       .     S
C14   C12    1.39021       .     S
C12   C14    1.39021       .     S
C18   C12    1.37984       .     S
C12   C18    1.37984       .     S
C17   C14    1.48433       .     S
C14   C17    1.48433       .     S
C42   C14    1.39242       .     S
C14   C42    1.39242       .     S
H16   C15    0.93031       .     S
C15   H16    0.93031       .     S
C23   C15    1.38443       .     S
C15   C23    1.38443       .     S
C59   C17    1.38331       .     S
C17   C59    1.38331       .     S
C80   C17    1.38593       .     S
C17   C80    1.38593       .     S
H19   C18    0.93188       .     S
C18   H19    0.93188       .     S
H21   C20    0.93046       .     S
C20   H21    0.93046       .     S
C28   C20    1.38850       .     S
C20   C28    1.38850       .     S
C38   C22    1.38517       .     S
C22   C38    1.38517       .     S
C44   C22    1.39957       .     S
C22   C44    1.39957       .     S
C33   C23    1.39714   1_565     S
C23   C33    1.39714   1_545     S
C46   C24    1.47855       .     S
C24   C46    1.47855       .     S
C61   C24    1.39688       .     S
C24   C61    1.39688       .     S
C64   C24    1.38872       .     S
C24   C64    1.38872       .     S
C28   C25    1.38565       .     S
C25   C28    1.38565       .     S
C48   C25    1.48575   1_565     S
C25   C48    1.48575   1_545     S
C49   C25    1.39203   1_565     S
C25   C49    1.39203   1_545     S
H27   C26    0.93086       .     S
C26   H27    0.93086       .     S
C44   C26    1.38531       .     S
C26   C44    1.38531       .     S
C46   C26    1.39210       .     S
C26   C46    1.39210       .     S
H29   C28    0.92969       .     S
C28   H29    0.92969       .     S
C66   N30    1.33029       .     S
N30   C66    1.33029       .     S
C69   N30    1.33147       .     S
N30   C69    1.33147       .     S
H32   C31    0.92990       .     S
C31   H32    0.92990       .     S
C38   C31    1.38296       .     S
C31   C38    1.38296       .     S
C46   C31    1.39538       .     S
C31   C46    1.39538       .     S
H34   C33    0.92932       .     S
C33   H34    0.92932       .     S
C35   C33    1.38792   1_545     S
C33   C35    1.38792   1_565     S
H36   C35    0.92976       .     S
C35   H36    0.92976       .     S
C61   N37    1.33806   1_565     S
N37   C61    1.33806   1_545     S
C71   N37    1.33200   1_565     S
N37   C71    1.33200   1_545     S
H39   C38    0.92994       .     S
C38   H39    0.92994       .     S
H41   C40    0.92972       .     S
C40   H41    0.92972       .     S
C42   C40    1.38358       .     S
C40   C42    1.38358       .     S
H43   C42    0.92808       .     S
C42   H43    0.92808       .     S
H45   C44    0.93009       .     S
C44   H45    0.93009       .     S
C78   N47    1.32805   1_565     S
N47   C78    1.32805   1_545     S
C80   N47    1.33357   1_565     S
N47   C80    1.33357   1_545     S
C57   C48    1.39892   1_445     S
C48   C57    1.39892   1_665     S
C74   C48    1.37531       .     S
C48   C74    1.37531       .     S
H50   C49    0.93029       .     S
C49   H50    0.93029       .     S
C52   C49    1.38352   1_545     S
C49   C52    1.38352   1_565     S
C74   N51    1.33474   1_655     S
N51   C74    1.33474   1_455     S
C76   N51    1.33006       .     S
N51   C76    1.33006       .     S
H53   C52    0.93049   1_565     S
C52   H53    0.93049   1_545     S
H55   C54    0.92976       .     S
C54   H55    0.92976       .     S
C63   C54    1.37285   1_565     S
C54   C63    1.37285   1_545     S
C57   C56    1.37108   1_545     S
C56   C57    1.37108   1_565     S
C76   C56    1.36415       .     S
C56   C76    1.36415       .     S
H58   C57    0.93057       .     S
C57   H58    0.93057       .     S
H60   C59    0.92995       .     S
C59   H60    0.92995       .     S
C73   C59    1.37749       .     S
C59   C73    1.37749       .     S
H62   C61    0.92932   1_545     S
C61   H62    0.92932   1_565     S
C66   C63    1.37027       .     S
C63   C66    1.37027       .     S
H65   C64    0.92997       .     S
C64   H65    0.92997       .     S
C68   C64    1.37204       .     S
C64   C68    1.37204       .     S
H67   C66    0.92969       .     S
C66   H67    0.92969       .     S
C71   C68    1.36226       .     S
C68   C71    1.36226       .     S
H70   C69    0.92925       .     S
C69   H70    0.92925       .     S
H72   C71    0.93020   1_645     S
C71   H72    0.93020   1_465     S
C78   C73    1.36209       .     S
C73   C78    1.36209       .     S
H75   C74    0.93019       .     S
C74   H75    0.93019       .     S
H77   C76    0.92992       .     S
C76   H77    0.92992       .     S
H79   C78    0.93185   1_545     S
C78   H79    0.93185   1_565     S
H81   C80    0.93056   1_545     S
C80   H81    0.93056   1_565     S
C84   N82    1.28669       .     S
N82   C84    1.28669       .     S
C86   N82    1.44667   1_565     S
N82   C86    1.44667   1_545     S
C90   N82    1.44462       .     S
N82   C90    1.44462       .     S
C84   O83    1.25386       .     S
O83   C84    1.25386       .     S
H85   C84    0.93050       .     S
C84   H85    0.93050       .     S
H87   C86    0.95969       .     S
C86   H87    0.95969       .     S
H88   C86    0.95846       .     S
C86   H88    0.95846       .     S
H89   C86    0.95968       .     S
C86   H89    0.95968       .     S
H91   C90    0.95996       .     S
C90   H91    0.95996       .     S
H92   C90    0.95898       .     S
C90   H92    0.95898       .     S
H93   C90    0.96062       .     S
C90   H93    0.96062       .     S
