data_I
_chemical_name_common  '/data/user2/wty/HOF/MOFDiff/mofdiff/data/test/243-hof-fju-39'
_cell_length_a 52.09390
_cell_length_b  6.35040
_cell_length_c 26.01630
_cell_angle_alpha 90.00000
_cell_angle_beta  101.70500
_cell_angle_gamma 90.00000
_space_group_name_H-M_alt      'P 1'


loop_
_space_group_symop_operation_xyz
  'x, y, z' 

loop_
_atom_site_label
_atom_site_fract_x
_atom_site_fract_y
_atom_site_fract_z
_atom_site_type_symbol
F0     0.57157   0.2552  0.15791     F
F1      0.7755   0.1983   0.3959     F
F2     0.66072    0.791  0.86727     F
F3     0.46093   0.8164   0.6112     F
C4     0.63246   0.5356  0.53075     C
C5     0.65566   0.6183  0.51176     C
C6     0.60808   0.5354  0.50054     C
C7     0.63831   0.4471  0.58501     C
C8     0.69782   0.7912  0.47324     C
C9      0.6017   0.6458  0.44873     C
C10    0.64679   0.2499  0.68383     C
N11    0.65632   0.8043  0.78003     N
C12    0.68397   0.6185  0.44898     C
H13     0.6889   0.5582   0.4199     H
C14    0.58564   0.4263  0.51673     C
C15    0.56703   0.1277  0.55372     C
H16     0.5691   0.9926   0.5677     H
C17      0.719   0.8905  0.45146     C
C18    0.65031   0.1356  0.73431     C
C19    0.54294   0.2292  0.54945     C
C20    0.66306    0.535  0.46737     C
H21     0.6538    0.422   0.4499     H
C22    0.58778   0.2238  0.53758     C
H23     0.6036   0.1516   0.5407     H
N24    0.74065   0.2097  0.43332     N
C25     0.5205   0.1277  0.56689     C
C26    0.62436   0.5091  0.62307     C
H27      0.612   0.6163   0.6156     H
C28    0.62869   0.4129  0.67166     C
H29     0.6194   0.4576   0.6966     H
C30    0.65763   0.2954  0.59857     C
H31     0.6681   0.2606   0.5749     H
C32    0.67058   0.7803  0.53803     C
H33     0.6669   0.8302   0.5693     H
C34    0.61045   0.8492  0.44181     C
H35     0.6204   0.9202   0.4703     H
C36    0.69089   0.8693  0.51875     C
H37     0.7001   0.9825   0.5363     H
C38    0.66155   0.1948  0.64663     C
H39     0.6741   0.0894   0.6543     H
C40    0.56135   0.5251  0.51108     C
H41     0.5591   0.6588   0.4963     H
C42      0.586   0.5495  0.40556     C
H43     0.5792   0.4163   0.4093     H
N44    0.49868   0.8089  0.58326     N
C45    0.58974   0.8471  0.34962     C
C46    0.54055   0.4288  0.52696     C
H47     0.5246   0.4988   0.5225     H
C48    0.65108   0.2377  0.78204     C
H49     0.6491   0.3832    0.783     H
C50    0.58025   0.6481  0.35692     C
H51     0.5698    0.579   0.3287     H
C52    0.60467   0.9475  0.39349     C
H53     0.6108   0.0831   0.3901     H
C54     0.5843   0.9489  0.29709     C
C55     0.7366   0.7751  0.42935     C
H56     0.7353    0.629   0.4277     H
C57    0.65294   0.9192  0.73588     C
H58     0.6523   0.8486   0.7043     H
N59    0.58221    0.264  0.24492     N
C60    0.72213   0.1071  0.45238     C
H61     0.7106   0.1869   0.4673     H
C62      0.756   0.8772  0.40979     C
H63      0.768   0.8037   0.3946     H
C64    0.50037   0.2416  0.58165     C
H65     0.5008    0.388   0.5816     H
C66    0.75668   0.0913  0.41396     C
C67     0.6573   0.9098  0.82313     C
C68    0.65478   0.1224  0.82791     C
H69     0.6555   0.1862   0.8604     H
C70    0.51846   0.9127  0.56885     C
H71     0.5318   0.8331   0.5595     H
C72    0.57837   0.8334  0.25072     C
H73     0.5774   0.6873    0.252     H
C74    0.48057   0.9238  0.59619     C
C75     0.5758   0.1486  0.20393     C
C76     0.4799   0.1384  0.59626     C
H77     0.4661   0.2115   0.6058     H
C78    0.57389   0.9344  0.20318     C
H79     0.5697   0.8601   0.1718     H
C80    0.58656   0.1625  0.29113     C
H81     0.5915   0.2429   0.3214     H
N82    0.71683    0.657  0.75485     N
O83    0.70809   0.8128  0.67694     O
C84    0.70812   0.6529  0.70422     C
H85     0.7018    0.527   0.6882     H
C86    0.72538   0.8489   0.7794     C
H87      0.715   0.8824   0.8047     H
H88     0.7236   0.9584   0.7534     H
H89     0.7434   0.8368   0.7966     H
C90    0.71676   0.4853   0.7881     C
H91     0.7144   0.3581   0.7678     H
H92     0.7027   0.5002   0.8066     H
H93     0.7332   0.4793   0.8128     H
loop_
_geom_bond_atom_site_label_1
_geom_bond_atom_site_label_2
_geom_bond_distance
_geom_bond_site_symmetry_2
_ccdc_geom_bond_type
F0    C75    1.35397       .     S
C75   F0     1.35397       .     S
F1    C66    1.35299       .     S
C66   F1     1.35299       .     S
F2    C67    1.35522       .     S
C67   F2     1.35522       .     S
F3    C74    1.35150       .     S
C74   F3     1.35150       .     S
C4    C5     1.49091       .     S
C5    C4     1.49091       .     S
C4    C6     1.35120       .     S
C6    C4     1.35120       .     S
C4    C7     1.49229       .     S
C7    C4     1.49229       .     S
C5    C20    1.39384       .     S
C20   C5     1.39384       .     S
C5    C32    1.38349       .     S
C32   C5     1.38349       .     S
C6    C9     1.49568       .     S
C9    C6     1.49568       .     S
C6    C14    1.49122       .     S
C14   C6     1.49122       .     S
C7    C26    1.39841       .     S
C26   C7     1.39841       .     S
C7    C30    1.38615       .     S
C30   C7     1.38615       .     S
C8    C12    1.39174       .     S
C12   C8     1.39174       .     S
C8    C17    1.47979       .     S
C17   C8     1.47979       .     S
C8    C36    1.39700       .     S
C36   C8     1.39700       .     S
C9    C34    1.39352       .     S
C34   C9     1.39352       .     S
C9    C42    1.38982       .     S
C42   C9     1.38982       .     S
C10   C18    1.47903       .     S
C18   C10    1.47903       .     S
C10   C28    1.39271       .     S
C28   C10    1.39271       .     S
C10   C38    1.39722       .     S
C38   C10    1.39722       .     S
N11   C57    1.34189       .     S
C57   N11    1.34189       .     S
N11   C67    1.29829       .     S
C67   N11    1.29829       .     S
C12   H13    0.92941       .     S
H13   C12    0.92941       .     S
C12   C20    1.38133       .     S
C20   C12    1.38133       .     S
C14   C22    1.39134       .     S
C22   C14    1.39134       .     S
C14   C40    1.39317       .     S
C40   C14    1.39317       .     S
C15   H16    0.92955   1_545     S
H16   C15    0.92955   1_565     S
C15   C19    1.39503       .     S
C19   C15    1.39503       .     S
C15   C22    1.37890       .     S
C22   C15    1.37890       .     S
C17   C55    1.38656       .     S
C55   C17    1.38656       .     S
C17   C60    1.38476   1_565     S
C60   C17    1.38476   1_545     S
C18   C48    1.39419       .     S
C48   C18    1.39419       .     S
C18   C57    1.38082   1_545     S
C57   C18    1.38082   1_565     S
C19   C25    1.48428       .     S
C25   C19    1.48428       .     S
C19   C46    1.39102       .     S
C46   C19    1.39102       .     S
C20   H21    0.93019       .     S
H21   C20    0.93019       .     S
C22   H23    0.93212       .     S
H23   C22    0.93212       .     S
N24   C60    1.33989       .     S
C60   N24    1.33989       .     S
N24   C66    1.29885       .     S
C66   N24    1.29885       .     S
C25   C64    1.39057       .     S
C64   C25    1.39057       .     S
C25   C70    1.37122   1_545     S
C70   C25    1.37122   1_565     S
C26   H27    0.93006       .     S
H27   C26    0.93006       .     S
C26   C28    1.38073       .     S
C28   C26    1.38073       .     S
C28   H29    0.92908       .     S
H29   C28    0.92908       .     S
C30   H31    0.92834       .     S
H31   C30    0.92834       .     S
C30   C38    1.38188       .     S
C38   C30    1.38188       .     S
C32   H33    0.92859       .     S
H33   C32    0.92859       .     S
C32   C36    1.38050       .     S
C36   C32    1.38050       .     S
C34   H35    0.93030       .     S
H35   C34    0.93030       .     S
C34   C52    1.38097       .     S
C52   C34    1.38097       .     S
C36   H37    0.93089       .     S
H37   C36    0.93089       .     S
C38   H39    0.92861       .     S
H39   C38    0.92861       .     S
C40   H41    0.92962       .     S
H41   C40    0.92962       .     S
C40   C46    1.37855       .     S
C46   C40    1.37855       .     S
C42   H43    0.92975       .     S
H43   C42    0.92975       .     S
C42   C50    1.38900       .     S
C50   C42    1.38900       .     S
N44   C70    1.33924       .     S
C70   N44    1.33924       .     S
N44   C74    1.29010       .     S
C74   N44    1.29010       .     S
C45   C50    1.38404       .     S
C50   C45    1.38404       .     S
C45   C52    1.39782       .     S
C52   C45    1.39782       .     S
C45   C54    1.48620       .     S
C54   C45    1.48620       .     S
C46   H47    0.92862       .     S
H47   C46    0.92862       .     S
C48   H49    0.93062       .     S
H49   C48    0.93062       .     S
C48   C68    1.37988       .     S
C68   C48    1.37988       .     S
C50   H51    0.93046       .     S
H51   C50    0.93046       .     S
C52   H53    0.92882   1_565     S
H53   C52    0.92882   1_545     S
C54   C72    1.39196       .     S
C72   C54    1.39196       .     S
C54   C80    1.37305   1_565     S
C80   C54    1.37305   1_545     S
C55   H56    0.93062       .     S
H56   C55    0.93062       .     S
C55   C62    1.38180       .     S
C62   C55    1.38180       .     S
C57   H58    0.93060       .     S
H58   C57    0.93060       .     S
N59   C75    1.28113       .     S
C75   N59    1.28113       .     S
N59   C80    1.34224       .     S
C80   N59    1.34224       .     S
C60   H61    0.92889       .     S
H61   C60    0.92889       .     S
C62   H63    0.93008       .     S
H63   C62    0.93008       .     S
C62   C66    1.36383   1_565     S
C66   C62    1.36383   1_545     S
C64   H65    0.92998       .     S
H65   C64    0.92998       .     S
C64   C76    1.36951       .     S
C76   C64    1.36951       .     S
C67   C68    1.36458   1_565     S
C68   C67    1.36458   1_545     S
C68   H69    0.93122       .     S
H69   C68    0.93122       .     S
C70   H71    0.93071       .     S
H71   C70    0.93071       .     S
C72   H73    0.93013       .     S
H73   C72    0.93013       .     S
C72   C78    1.37056       .     S
C78   C72    1.37056       .     S
C74   C76    1.36325   1_565     S
C76   C74    1.36325   1_545     S
C75   C78    1.36374   1_545     S
C78   C75    1.36374   1_565     S
C76   H77    0.93075       .     S
H77   C76    0.93075       .     S
C78   H79    0.92977       .     S
H79   C78    0.92977       .     S
C80   H81    0.92998       .     S
H81   C80    0.92998       .     S
N82   C84    1.30349       .     S
C84   N82    1.30349       .     S
N82   C86    1.40570       .     S
C86   N82    1.40570       .     S
N82   C90    1.39229       .     S
C90   N82    1.39229       .     S
O83   C84    1.23869       .     S
C84   O83    1.23869       .     S
C84   H85    0.93040       .     S
H85   C84    0.93040       .     S
C86   H87    0.95672       .     S
H87   C86    0.95672       .     S
C86   H88    0.96137       .     S
H88   C86    0.96137       .     S
C86   H89    0.95756       .     S
H89   C86    0.95756       .     S
C90   H91    0.95926       .     S
H91   C90    0.95926       .     S
C90   H92    0.95922       .     S
H92   C90    0.95922       .     S
C90   H93    0.96154       .     S
H93   C90    0.96154       .     S
C75   F0     1.35397       .     S
F0    C75    1.35397       .     S
C66   F1     1.35299       .     S
F1    C66    1.35299       .     S
C67   F2     1.35522       .     S
F2    C67    1.35522       .     S
C74   F3     1.35150       .     S
F3    C74    1.35150       .     S
C5    C4     1.49091       .     S
C4    C5     1.49091       .     S
C6    C4     1.35120       .     S
C4    C6     1.35120       .     S
C7    C4     1.49229       .     S
C4    C7     1.49229       .     S
C20   C5     1.39384       .     S
C5    C20    1.39384       .     S
C32   C5     1.38349       .     S
C5    C32    1.38349       .     S
C9    C6     1.49568       .     S
C6    C9     1.49568       .     S
C14   C6     1.49122       .     S
C6    C14    1.49122       .     S
C26   C7     1.39841       .     S
C7    C26    1.39841       .     S
C30   C7     1.38615       .     S
C7    C30    1.38615       .     S
C12   C8     1.39174       .     S
C8    C12    1.39174       .     S
C17   C8     1.47979       .     S
C8    C17    1.47979       .     S
C36   C8     1.39700       .     S
C8    C36    1.39700       .     S
C34   C9     1.39352       .     S
C9    C34    1.39352       .     S
C42   C9     1.38982       .     S
C9    C42    1.38982       .     S
C18   C10    1.47903       .     S
C10   C18    1.47903       .     S
C28   C10    1.39271       .     S
C10   C28    1.39271       .     S
C38   C10    1.39722       .     S
C10   C38    1.39722       .     S
C57   N11    1.34189       .     S
N11   C57    1.34189       .     S
C67   N11    1.29829       .     S
N11   C67    1.29829       .     S
H13   C12    0.92941       .     S
C12   H13    0.92941       .     S
C20   C12    1.38133       .     S
C12   C20    1.38133       .     S
C22   C14    1.39134       .     S
C14   C22    1.39134       .     S
C40   C14    1.39317       .     S
C14   C40    1.39317       .     S
H16   C15    0.92955   1_565     S
C15   H16    0.92955   1_545     S
C19   C15    1.39503       .     S
C15   C19    1.39503       .     S
C22   C15    1.37890       .     S
C15   C22    1.37890       .     S
C55   C17    1.38656       .     S
C17   C55    1.38656       .     S
C60   C17    1.38476   1_545     S
C17   C60    1.38476   1_565     S
C48   C18    1.39419       .     S
C18   C48    1.39419       .     S
C57   C18    1.38082   1_565     S
C18   C57    1.38082   1_545     S
C25   C19    1.48428       .     S
C19   C25    1.48428       .     S
C46   C19    1.39102       .     S
C19   C46    1.39102       .     S
H21   C20    0.93019       .     S
C20   H21    0.93019       .     S
H23   C22    0.93212       .     S
C22   H23    0.93212       .     S
C60   N24    1.33989       .     S
N24   C60    1.33989       .     S
C66   N24    1.29885       .     S
N24   C66    1.29885       .     S
C64   C25    1.39057       .     S
C25   C64    1.39057       .     S
C70   C25    1.37122   1_565     S
C25   C70    1.37122   1_545     S
H27   C26    0.93006       .     S
C26   H27    0.93006       .     S
C28   C26    1.38073       .     S
C26   C28    1.38073       .     S
H29   C28    0.92908       .     S
C28   H29    0.92908       .     S
H31   C30    0.92834       .     S
C30   H31    0.92834       .     S
C38   C30    1.38188       .     S
C30   C38    1.38188       .     S
H33   C32    0.92859       .     S
C32   H33    0.92859       .     S
C36   C32    1.38050       .     S
C32   C36    1.38050       .     S
H35   C34    0.93030       .     S
C34   H35    0.93030       .     S
C52   C34    1.38097       .     S
C34   C52    1.38097       .     S
H37   C36    0.93089       .     S
C36   H37    0.93089       .     S
H39   C38    0.92861       .     S
C38   H39    0.92861       .     S
H41   C40    0.92962       .     S
C40   H41    0.92962       .     S
C46   C40    1.37855       .     S
C40   C46    1.37855       .     S
H43   C42    0.92975       .     S
C42   H43    0.92975       .     S
C50   C42    1.38900       .     S
C42   C50    1.38900       .     S
C70   N44    1.33924       .     S
N44   C70    1.33924       .     S
C74   N44    1.29010       .     S
N44   C74    1.29010       .     S
C50   C45    1.38404       .     S
C45   C50    1.38404       .     S
C52   C45    1.39782       .     S
C45   C52    1.39782       .     S
C54   C45    1.48620       .     S
C45   C54    1.48620       .     S
H47   C46    0.92862       .     S
C46   H47    0.92862       .     S
H49   C48    0.93062       .     S
C48   H49    0.93062       .     S
C68   C48    1.37988       .     S
C48   C68    1.37988       .     S
H51   C50    0.93046       .     S
C50   H51    0.93046       .     S
H53   C52    0.92882   1_545     S
C52   H53    0.92882   1_565     S
C72   C54    1.39196       .     S
C54   C72    1.39196       .     S
C80   C54    1.37305   1_545     S
C54   C80    1.37305   1_565     S
H56   C55    0.93062       .     S
C55   H56    0.93062       .     S
C62   C55    1.38180       .     S
C55   C62    1.38180       .     S
H58   C57    0.93060       .     S
C57   H58    0.93060       .     S
C75   N59    1.28113       .     S
N59   C75    1.28113       .     S
C80   N59    1.34224       .     S
N59   C80    1.34224       .     S
H61   C60    0.92889       .     S
C60   H61    0.92889       .     S
H63   C62    0.93008       .     S
C62   H63    0.93008       .     S
C66   C62    1.36383   1_545     S
C62   C66    1.36383   1_565     S
H65   C64    0.92998       .     S
C64   H65    0.92998       .     S
C76   C64    1.36951       .     S
C64   C76    1.36951       .     S
C68   C67    1.36458   1_545     S
C67   C68    1.36458   1_565     S
H69   C68    0.93122       .     S
C68   H69    0.93122       .     S
H71   C70    0.93071       .     S
C70   H71    0.93071       .     S
H73   C72    0.93013       .     S
C72   H73    0.93013       .     S
C78   C72    1.37056       .     S
C72   C78    1.37056       .     S
C76   C74    1.36325   1_545     S
C74   C76    1.36325   1_565     S
C78   C75    1.36374   1_565     S
C75   C78    1.36374   1_545     S
H77   C76    0.93075       .     S
C76   H77    0.93075       .     S
H79   C78    0.92977       .     S
C78   H79    0.92977       .     S
H81   C80    0.92998       .     S
C80   H81    0.92998       .     S
C84   N82    1.30349       .     S
N82   C84    1.30349       .     S
C86   N82    1.40570       .     S
N82   C86    1.40570       .     S
C90   N82    1.39229       .     S
N82   C90    1.39229       .     S
C84   O83    1.23869       .     S
O83   C84    1.23869       .     S
H85   C84    0.93040       .     S
C84   H85    0.93040       .     S
H87   C86    0.95672       .     S
C86   H87    0.95672       .     S
H88   C86    0.96137       .     S
C86   H88    0.96137       .     S
H89   C86    0.95756       .     S
C86   H89    0.95756       .     S
H91   C90    0.95926       .     S
C90   H91    0.95926       .     S
H92   C90    0.95922       .     S
C90   H92    0.95922       .     S
H93   C90    0.96154       .     S
C90   H93    0.96154       .     S
