data_I
_chemical_name_common  '/data/user2/wty/HOF/MOFDiff/mofdiff/data/test/244-hof-tta'
_cell_length_a 12.90810
_cell_length_b 19.34910
_cell_length_c 15.24800
_cell_angle_alpha 90.00000
_cell_angle_beta  90.32000
_cell_angle_gamma 90.00000
_space_group_name_H-M_alt      'P 1'


loop_
_space_group_symop_operation_xyz
  'x, y, z' 

loop_
_atom_site_label
_atom_site_fract_x
_atom_site_fract_y
_atom_site_fract_z
_atom_site_type_symbol
O0     0.48285   0.3538  0.28078     O
C1       0.496  0.41628  0.27148     C
C2      0.5102   0.5869  0.28305     C
O3     0.55239  0.44129  0.21092     O
H4     0.55422  0.40232   0.1789     H
O5     0.56493  0.56387   0.2199     O
H6     0.57014  0.52074  0.22451     H
C7      0.0713  0.71033   0.6815     C
O8      0.5062  0.64886  0.30074     O
C9      0.1061  0.29037  0.70629     C
C10    0.44096  0.46447  0.33479     C
O11     0.1218  0.76299   0.7171     O
H12    0.07924  0.79333  0.73283     H
O13     0.9801  0.70047   0.6914     O
C14    0.44742  0.53745  0.33938     C
O15    0.10481  0.30354  0.78366     O
C16    0.38871  0.57069  0.40325     C
H17    0.39379  0.61956  0.40747     H
O18     0.0656  0.23464  0.67146     O
H19    0.04465  0.20836  0.71147     H
C20    0.32336  0.53685  0.46103     C
C21    0.31796   0.4646  0.45725     C
C22    0.37698  0.43054  0.39458     C
H23     0.3736  0.38153  0.39232     H
C24     0.1385  0.66524   0.6266     C
C25     0.0928  0.61302  0.57837     C
H26    0.02007  0.60616  0.58129     H
C27     0.1526  0.57036  0.52555     C
H28    0.12075  0.53437  0.49272     H
C29    0.25715  0.42244  0.52024     C
C30     0.2677  0.43279  0.61004     C
H31    0.30955  0.46966  0.63115     H
C32     0.2178   0.3899  0.66915     C
H33     0.2267  0.39709  0.73037     H
C34     0.1553   0.3368  0.63955     C
C35     0.1427  0.32694  0.55052     C
H36    0.09891  0.29092  0.52984     H
C37     0.1932  0.36898  0.49103     C
H38    0.18421  0.36137   0.4299     H
C39     0.2455  0.67461  0.62326     C
H40    0.27777   0.7099  0.65704     H
C41     0.3042   0.6321  0.57038     C
H42    0.37706  0.63852  0.56803     H
C43    0.25887   0.5804  0.52083     C
loop_
_geom_bond_atom_site_label_1
_geom_bond_atom_site_label_2
_geom_bond_distance
_geom_bond_site_symmetry_2
_ccdc_geom_bond_type
H6    O3     1.56785       .     S
O3    H6     1.56785       .     S
O0    C1     1.22911       .     S
C1    O0     1.22911       .     S
C1    O3     1.27445       .     S
O3    C1     1.27445       .     S
C1    C10    1.52110       .     S
C10   C1     1.52110       .     S
C2    O5     1.27767       .     S
O5    C2     1.27767       .     S
C2    O8     1.22999       .     S
O8    C2     1.22999       .     S
C2    C14    1.52240       .     S
C14   C2     1.52240       .     S
O3    H4     0.89869       .     S
H4    O3     0.89869       .     S
O5    H6     0.84015       .     S
H6    O5     0.84015       .     S
C7    O11    1.32432       .     S
O11   C7     1.32432       .     S
C7    O13    1.20292   1_455     S
O13   C7     1.20292   1_655     S
C7    C24    1.49080       .     S
C24   C7     1.49080       .     S
C9    O15    1.20715       .     S
O15   C9     1.20715       .     S
C9    O18    1.30959       .     S
O18   C9     1.30959       .     S
C9    C34    1.50108       .     S
C34   C9     1.50108       .     S
C10   C14    1.41626       .     S
C14   C10    1.41626       .     S
C10   C22    1.39736       .     S
C22   C10    1.39736       .     S
O11   H12    0.83990       .     S
H12   O11    0.83990       .     S
C14   C16    1.39452       .     S
C16   C14    1.39452       .     S
C16   H17    0.95002       .     S
H17   C16    0.95002       .     S
C16   C20    1.38737       .     S
C20   C16    1.38737       .     S
O18   H19    0.84008       .     S
H19   O18    0.84008       .     S
C20   C21    1.40088       .     S
C21   C20    1.40088       .     S
C20   C43    1.49764       .     S
C43   C20    1.49764       .     S
C21   C22    1.39140       .     S
C22   C21    1.39140       .     S
C21   C29    1.48745       .     S
C29   C21    1.48745       .     S
C22   H23    0.94992       .     S
H23   C22    0.94992       .     S
C24   C25    1.38018       .     S
C25   C24    1.38018       .     S
C24   C39    1.39423       .     S
C39   C24    1.39423       .     S
C25   H26    0.94943       .     S
H26   C25    0.94943       .     S
C25   C27    1.39025       .     S
C27   C25    1.39025       .     S
C27   H28    0.94987       .     S
H28   C27    0.94987       .     S
C27   C43    1.38770       .     S
C43   C27    1.38770       .     S
C29   C30    1.38977       .     S
C30   C29    1.38977       .     S
C29   C37    1.39487       .     S
C37   C29    1.39487       .     S
C30   H31    0.94996       .     S
H31   C30    0.94996       .     S
C30   C32    1.38652       .     S
C32   C30    1.38652       .     S
C32   H33    0.95013       .     S
H33   C32    0.95013       .     S
C32   C34    1.38062       .     S
C34   C32    1.38062       .     S
C34   C35    1.37959       .     S
C35   C34    1.37959       .     S
C35   H36    0.95010       .     S
H36   C35    0.95010       .     S
C35   C37    1.38421       .     S
C37   C35    1.38421       .     S
C37   H38    0.95014       .     S
H38   C37    0.95014       .     S
C39   H40    0.95009       .     S
H40   C39    0.95009       .     S
C39   C41    1.38117       .     S
C41   C39    1.38117       .     S
C41   H42    0.94953       .     S
H42   C41    0.94953       .     S
C41   C43    1.38165       .     S
C43   C41    1.38165       .     S
O3    H6     1.56785       .     S
H6    O3     1.56785       .     S
C1    O0     1.22911       .     S
O0    C1     1.22911       .     S
O3    C1     1.27445       .     S
C1    O3     1.27445       .     S
C10   C1     1.52110       .     S
C1    C10    1.52110       .     S
O5    C2     1.27767       .     S
C2    O5     1.27767       .     S
O8    C2     1.22999       .     S
C2    O8     1.22999       .     S
C14   C2     1.52240       .     S
C2    C14    1.52240       .     S
H4    O3     0.89869       .     S
O3    H4     0.89869       .     S
H6    O5     0.84015       .     S
O5    H6     0.84015       .     S
O11   C7     1.32432       .     S
C7    O11    1.32432       .     S
O13   C7     1.20292   1_655     S
C7    O13    1.20292   1_455     S
C24   C7     1.49080       .     S
C7    C24    1.49080       .     S
O15   C9     1.20715       .     S
C9    O15    1.20715       .     S
O18   C9     1.30959       .     S
C9    O18    1.30959       .     S
C34   C9     1.50108       .     S
C9    C34    1.50108       .     S
C14   C10    1.41626       .     S
C10   C14    1.41626       .     S
C22   C10    1.39736       .     S
C10   C22    1.39736       .     S
H12   O11    0.83990       .     S
O11   H12    0.83990       .     S
C16   C14    1.39452       .     S
C14   C16    1.39452       .     S
H17   C16    0.95002       .     S
C16   H17    0.95002       .     S
C20   C16    1.38737       .     S
C16   C20    1.38737       .     S
H19   O18    0.84008       .     S
O18   H19    0.84008       .     S
C21   C20    1.40088       .     S
C20   C21    1.40088       .     S
C43   C20    1.49764       .     S
C20   C43    1.49764       .     S
C22   C21    1.39140       .     S
C21   C22    1.39140       .     S
C29   C21    1.48745       .     S
C21   C29    1.48745       .     S
H23   C22    0.94992       .     S
C22   H23    0.94992       .     S
C25   C24    1.38018       .     S
C24   C25    1.38018       .     S
C39   C24    1.39423       .     S
C24   C39    1.39423       .     S
H26   C25    0.94943       .     S
C25   H26    0.94943       .     S
C27   C25    1.39025       .     S
C25   C27    1.39025       .     S
H28   C27    0.94987       .     S
C27   H28    0.94987       .     S
C43   C27    1.38770       .     S
C27   C43    1.38770       .     S
C30   C29    1.38977       .     S
C29   C30    1.38977       .     S
C37   C29    1.39487       .     S
C29   C37    1.39487       .     S
H31   C30    0.94996       .     S
C30   H31    0.94996       .     S
C32   C30    1.38652       .     S
C30   C32    1.38652       .     S
H33   C32    0.95013       .     S
C32   H33    0.95013       .     S
C34   C32    1.38062       .     S
C32   C34    1.38062       .     S
C35   C34    1.37959       .     S
C34   C35    1.37959       .     S
H36   C35    0.95010       .     S
C35   H36    0.95010       .     S
C37   C35    1.38421       .     S
C35   C37    1.38421       .     S
H38   C37    0.95014       .     S
C37   H38    0.95014       .     S
H40   C39    0.95009       .     S
C39   H40    0.95009       .     S
C41   C39    1.38117       .     S
C39   C41    1.38117       .     S
H42   C41    0.94953       .     S
C41   H42    0.94953       .     S
C43   C41    1.38165       .     S
C41   C43    1.38165       .     S
