data_I
_chemical_name_common  '/data/user2/wty/HOF/MOFDiff/mofdiff/data/test/249-za'
_cell_length_a 16.94700
_cell_length_b 16.94700
_cell_length_c 34.36200
_cell_angle_alpha 90.00000
_cell_angle_beta  90.00000
_cell_angle_gamma 120.00000
_space_group_name_H-M_alt      'P 1'


loop_
_space_group_symop_operation_xyz
  'x, y, z' 

loop_
_atom_site_label
_atom_site_fract_x
_atom_site_fract_y
_atom_site_fract_z
_atom_site_type_symbol
Zn0    0.59309   0.5977  0.29142    Zn
N1     0.42919  0.39183  0.37062     N
N2     0.52657  0.51778  0.33645     N
N3     0.59878  0.62252  0.39052     N
O4     0.56404  0.54801   0.2392     O
N5     0.54109  0.55387  0.45297     N
N6     0.58079  0.70898  0.29659     N
N7     0.43039   0.4041  0.46226     N
C8     0.46118  0.42934  0.33582     C
H9     0.43935  0.39598  0.31227     H
O10    0.41811   0.4839  0.25036     O
C11    0.53827  0.53968  0.37518     C
C12    0.47932  0.46325  0.39668     C
C13    0.48178  0.47096  0.43759     C
C14    0.59452  0.62215  0.42887     C
H15    0.63512   0.6783  0.44116     H
N16     0.6081  0.84966  0.29415     N
H17    0.63436  0.90803  0.28846     H
C18     0.6363   0.7924  0.28285     C
C19      0.482   0.5022  0.22856     C
C20     0.5158   0.7154  0.31872     C
H21    0.46838  0.66747  0.33327     H
C22     0.5315   0.8019  0.31597     C
H23     0.4958  0.82487   0.3272     H
C24     0.7147   0.8186  0.25727     C
H25    0.74392  0.88386  0.25148     H
H26     0.7585  0.80565  0.27025     H
H27    0.69417  0.78378  0.23299     H
C28     0.4684     0.47  0.18667     C
H29    0.52784  0.49191  0.17429     H
H30    0.43391  0.40327    0.186     H
H31    0.43455  0.49404  0.17263     H
H32      0.443    0.417   0.4879     H
H33      0.402    0.347    0.454     H
loop_
_geom_bond_atom_site_label_1
_geom_bond_atom_site_label_2
_geom_bond_distance
_geom_bond_site_symmetry_2
_ccdc_geom_bond_type
Zn0   N2     1.99314       .     S
N2    Zn0    1.99314       .     S
Zn0   O4     1.93823       .     S
O4    Zn0    1.93823       .     S
Zn0   N6     2.00614       .     S
N6    Zn0    2.00614       .     S
N1    C8     1.33541       .     S
C8    N1     1.33541       .     S
N1    C12    1.40011       .     S
C12   N1     1.40011       .     S
N2    C8     1.34684       .     S
C8    N2     1.34684       .     S
N2    C11    1.36916       .     S
C11   N2     1.36916       .     S
N3    C11    1.36407       .     S
C11   N3     1.36407       .     S
N3    C14    1.31960       .     S
C14   N3     1.31960       .     S
O4    C19    1.26096       .     S
C19   O4     1.26096       .     S
N5    C13    1.36071       .     S
C13   N5     1.36071       .     S
N5    C14    1.34048       .     S
C14   N5     1.34048       .     S
N6    C18    1.33287       .     S
C18   N6     1.33287       .     S
N6    C20    1.38671       .     S
C20   N6     1.38671       .     S
N7    C13    1.33197       .     S
C13   N7     1.33197       .     S
N7    H32    0.90718       .     S
H32   N7     0.90718       .     S
N7    H33    0.88479       .     S
H33   N7     0.88479       .     S
C8    H9     0.94983       .     S
H9    C8     0.94983       .     S
O10   C19    1.22224       .     S
C19   O10    1.22224       .     S
C11   C12    1.38836       .     S
C12   C11    1.38836       .     S
C12   C13    1.41049       .     S
C13   C12    1.41049       .     S
C14   H15    0.95001       .     S
H15   C14    0.95001       .     S
N16   H17    0.88010       .     S
H17   N16    0.88010       .     S
N16   C18    1.33588       .     S
C18   N16    1.33588       .     S
N16   C22    1.36079       .     S
C22   N16    1.36079       .     S
C18   C24    1.46462       .     S
C24   C18    1.46462       .     S
C19   C28    1.51561       .     S
C28   C19    1.51561       .     S
C20   H21    0.95016       .     S
H21   C20    0.95016       .     S
C20   C22    1.35595       .     S
C22   C20    1.35595       .     S
C22   H23    0.94973       .     S
H23   C22    0.94973       .     S
C24   H25    0.97994       .     S
H25   C24    0.97994       .     S
C24   H26    0.98029       .     S
H26   C24    0.98029       .     S
C24   H27    0.97981       .     S
H27   C24    0.97981       .     S
C28   H29    0.97955       .     S
H29   C28    0.97955       .     S
C28   H30    0.97982       .     S
H30   C28    0.97982       .     S
C28   H31    0.98057       .     S
H31   C28    0.98057       .     S
N2    Zn0    1.99314       .     S
Zn0   N2     1.99314       .     S
O4    Zn0    1.93823       .     S
Zn0   O4     1.93823       .     S
N6    Zn0    2.00614       .     S
Zn0   N6     2.00614       .     S
C8    N1     1.33541       .     S
N1    C8     1.33541       .     S
C12   N1     1.40011       .     S
N1    C12    1.40011       .     S
C8    N2     1.34684       .     S
N2    C8     1.34684       .     S
C11   N2     1.36916       .     S
N2    C11    1.36916       .     S
C11   N3     1.36407       .     S
N3    C11    1.36407       .     S
C14   N3     1.31960       .     S
N3    C14    1.31960       .     S
C19   O4     1.26096       .     S
O4    C19    1.26096       .     S
C13   N5     1.36071       .     S
N5    C13    1.36071       .     S
C14   N5     1.34048       .     S
N5    C14    1.34048       .     S
C18   N6     1.33287       .     S
N6    C18    1.33287       .     S
C20   N6     1.38671       .     S
N6    C20    1.38671       .     S
C13   N7     1.33197       .     S
N7    C13    1.33197       .     S
H32   N7     0.90718       .     S
N7    H32    0.90718       .     S
H33   N7     0.88479       .     S
N7    H33    0.88479       .     S
H9    C8     0.94983       .     S
C8    H9     0.94983       .     S
C19   O10    1.22224       .     S
O10   C19    1.22224       .     S
C12   C11    1.38836       .     S
C11   C12    1.38836       .     S
C13   C12    1.41049       .     S
C12   C13    1.41049       .     S
H15   C14    0.95001       .     S
C14   H15    0.95001       .     S
H17   N16    0.88010       .     S
N16   H17    0.88010       .     S
C18   N16    1.33588       .     S
N16   C18    1.33588       .     S
C22   N16    1.36079       .     S
N16   C22    1.36079       .     S
C24   C18    1.46462       .     S
C18   C24    1.46462       .     S
C28   C19    1.51561       .     S
C19   C28    1.51561       .     S
H21   C20    0.95016       .     S
C20   H21    0.95016       .     S
C22   C20    1.35595       .     S
C20   C22    1.35595       .     S
H23   C22    0.94973       .     S
C22   H23    0.94973       .     S
H25   C24    0.97994       .     S
C24   H25    0.97994       .     S
H26   C24    0.98029       .     S
C24   H26    0.98029       .     S
H27   C24    0.97981       .     S
C24   H27    0.97981       .     S
H29   C28    0.97955       .     S
C28   H29    0.97955       .     S
H30   C28    0.97982       .     S
C28   H30    0.97982       .     S
H31   C28    0.98057       .     S
C28   H31    0.98057       .     S
