data_I
_chemical_name_common  '/data/user2/wty/HOF/MOFDiff/mofdiff/data/test/250-hof-zstu-2'
_cell_length_a  9.64090
_cell_length_b 15.06230
_cell_length_c 17.81460
_cell_angle_alpha 104.97800
_cell_angle_beta  103.85400
_cell_angle_gamma 101.36000
_space_group_name_H-M_alt      'P 1'


loop_
_space_group_symop_operation_xyz
  'x, y, z' 

loop_
_atom_site_label
_atom_site_fract_x
_atom_site_fract_y
_atom_site_fract_z
_atom_site_type_symbol
O0      0.7226   0.3958  0.89928     O
H1     0.76788  0.40729  0.86716     H
O2       0.862   0.5431  0.97487     O
O3      0.7137   0.1021   0.6378     O
H4     0.72921  0.15766   0.6677     H
O5      0.4877   0.0873   0.6546     O
O6      0.8473   0.4226  0.79704     O
O7      0.7914   0.2651  0.75029     O
O8      0.8907   0.7547  0.97247     O
O9      0.9292    0.711   0.0837     O
H10    0.91171  0.65747  0.04979     H
N11     0.4366   0.5244  0.33504     N
H12    0.39928  0.47557  0.34859     H
N13     0.3193   0.3205   0.2522     N
N14     0.3044   0.4947  0.46136     N
C15     0.9306   0.3541   0.6869     C
C16     0.3741   0.5901   0.4952     C
C17     0.0751   0.3714   0.5695     C
C18     0.9285   0.4286   0.6549     C
H19    0.87897  0.47381  0.67282     H
C20     0.8514   0.3448   0.7481     C
C21     0.4818   0.5178   0.2669     C
C22     0.2479   0.4705   0.5193     C
C23     0.0802   0.2989    0.605     C
H24    0.13585  0.25638  0.59034     H
C25     0.6963   0.4576    0.029     C
C26     0.4718    0.755   0.4949     C
C27     0.4341   0.6494   0.4544     C
C28     0.9981   0.4372    0.597     C
H29    0.99418  0.48773  0.57547     H
C30     0.5588   0.4425   0.1484     C
C31     0.5265   0.6132   0.2653     C
H32    0.56014  0.63126   0.2246     H
C33     0.4859   0.3905    0.066     C
H34    0.38905  0.35014  0.05053     H
C35     0.1093   0.3014   0.4371     C
C36     0.4578   0.6173   0.3787     C
C37     0.4826   0.4328   0.2113     C
C38     0.7012   0.5005   0.1698     C
H39    0.75261   0.5347  0.22508     H
C40     0.0055   0.2878   0.6612     C
H41    0.00558  0.23607  0.68149     H
C42     0.1506   0.3818   0.5072     C
C43     0.2698   0.2224   0.2269     C
C44     0.2915   0.5521   0.5926     C
H45    0.26919  0.55292  0.64128     H
C46     0.3694    0.626   0.5779     C
H47    0.41263  0.68869  0.61415     H
C48     0.5121   0.6739   0.3329     C
H49    0.53398  0.74085  0.34684     H
C50     0.6132   0.8143   0.5119     C
H51    0.68676  0.78859  0.49576     H
C52     0.3634   0.7959   0.5172     C
H53    0.26596  0.75725  0.50386     H
C54     0.1137   0.2048   0.3175     C
C55     0.7695    0.509   0.1108     C
H56    0.86598  0.54973  0.12624     H
C57     0.6463   0.9117   0.5526     C
H58    0.74205  0.95145  0.56362     H
C59     0.5542   0.3978   0.0072     C
H60      0.504  0.36207  0.95215     H
C61     0.1604   0.1694   0.2505     C
C62     0.5404   0.9504   0.5769     C
C63      0.419   0.3406   0.2108     C
C64     0.3981   0.8925   0.5588     C
H65    0.32505  0.91887  0.57483     H
N66     0.1727    0.294  0.37482     N
H67    0.24062  0.33962  0.37225     H
C68     0.0018   0.1543   0.3433     C
H69     0.9401  0.09183  0.31523     H
C70     0.5761   0.0526   0.6263     C
C71     0.7684   0.4694   0.9663     C
C72     0.0919   0.0663   0.1998     C
C73     0.3467   0.1807   0.1719     C
H74    0.33456  0.11521  0.14775     H
C75      0.929   0.7754   0.0463     C
C76        0.0   0.2128   0.4158     C
H77    0.93738  0.19715  0.44635     H
C78     0.9793   0.8754   0.1012     C
C79     0.4372   0.2529   0.1623     C
H80    0.50122  0.24788  0.12999     H
C81     0.1172   0.9947   0.2314     C
H82    0.17321  0.01019  0.28631     H
C83     0.0606   0.8999   0.1826     C
H84    0.07747  0.85152  0.20505     H
C85     0.0041   0.0419   0.1196     C
H86    0.98162   0.0899  0.09804     H
C87     0.9492   0.9466   0.0711     C
H88    0.89044   0.9308  0.01659     H
H89      0.076   0.4322    0.163     H
N90     0.0715    0.377   0.1633     N
H91      0.133    0.359    0.195     H
H92      0.085    0.363   0.1179     H
H93       0.99     0.34    0.161     H
loop_
_geom_bond_atom_site_label_1
_geom_bond_atom_site_label_2
_geom_bond_distance
_geom_bond_site_symmetry_2
_ccdc_geom_bond_type
H1    O6     1.65446       .     S
O6    H1     1.65446       .     S
H4    O7     1.76286       .     S
O7    H4     1.76286       .     S
H10   O2     1.77725   1_554     S
O2    H10    1.77725   1_556     S
H12   N13    2.36262       .     S
N13   H12    2.36262       .     S
H12   N14    2.37493       .     S
N14   H12    2.37493       .     S
H67   N13    2.40348       .     S
N13   H67    2.40348       .     S
H67   N14    2.32473       .     S
N14   H67    2.32473       .     S
H91   N13    2.10710       .     S
N13   H91    2.10710       .     S
O0    H1     0.83005       .     S
H1    O0     0.83005       .     S
O0    C71    1.31147       .     S
C71   O0     1.31147       .     S
O2    C71    1.23357       .     S
C71   O2     1.23357       .     S
O3    H4     0.82980       .     S
H4    O3     0.82980       .     S
O3    C70    1.32625       .     S
C70   O3     1.32625       .     S
O5    C70    1.22423       .     S
C70   O5     1.22423       .     S
O6    C20    1.28123       .     S
C20   O6     1.28123       .     S
O7    C20    1.24044       .     S
C20   O7     1.24044       .     S
O8    C75    1.21390   1_556     S
C75   O8     1.21390   1_554     S
O9    H10    0.83027       .     S
H10   O9     0.83027       .     S
O9    C75    1.31111       .     S
C75   O9     1.31111       .     S
N11   H12    0.87051       .     S
H12   N11    0.87051       .     S
N11   C21    1.37161       .     S
C21   N11    1.37161       .     S
N11   C36    1.36139       .     S
C36   N11    1.36139       .     S
N13   C43    1.37448       .     S
C43   N13    1.37448       .     S
N13   C63    1.37832       .     S
C63   N13    1.37832       .     S
N14   C16    1.36295       .     S
C16   N14    1.36295       .     S
N14   C22    1.37130       .     S
C22   N14    1.37130       .     S
C15   C18    1.38516       .     S
C18   C15    1.38516       .     S
C15   C20    1.49224       .     S
C20   C15    1.49224       .     S
C15   C40    1.39082   1_655     S
C40   C15    1.39082   1_455     S
C16   C27    1.41212       .     S
C27   C16    1.41212       .     S
C16   C46    1.44734       .     S
C46   C16    1.44734       .     S
C17   C23    1.39932       .     S
C23   C17    1.39932       .     S
C17   C28    1.40940   1_455     S
C28   C17    1.40940   1_655     S
C17   C42    1.48928       .     S
C42   C17    1.48928       .     S
C18   H19    0.93935       .     S
H19   C18    0.93935       .     S
C18   C28    1.37740       .     S
C28   C18    1.37740       .     S
C21   C31    1.42634       .     S
C31   C21    1.42634       .     S
C21   C37    1.40440       .     S
C37   C21    1.40440       .     S
C22   C42    1.40427       .     S
C42   C22    1.40427       .     S
C22   C44    1.44793       .     S
C44   C22    1.44793       .     S
C23   H24    0.93928       .     S
H24   C23    0.93928       .     S
C23   C40    1.39045       .     S
C40   C23    1.39045       .     S
C25   C55    1.38927       .     S
C55   C25    1.38927       .     S
C25   C59    1.38464       .     S
C59   C25    1.38464       .     S
C25   C71    1.47925   1_554     S
C71   C25    1.47925   1_556     S
C26   C27    1.49535       .     S
C27   C26    1.49535       .     S
C26   C50    1.38949       .     S
C50   C26    1.38949       .     S
C26   C52    1.39838       .     S
C52   C26    1.39838       .     S
C27   C36    1.39952       .     S
C36   C27    1.39952       .     S
C28   H29    0.93973       .     S
H29   C28    0.93973       .     S
C30   C33    1.39893       .     S
C33   C30    1.39893       .     S
C30   C37    1.50107       .     S
C37   C30    1.50107       .     S
C30   C38    1.37769       .     S
C38   C30    1.37769       .     S
C31   H32    0.94058       .     S
H32   C31    0.94058       .     S
C31   C48    1.36616       .     S
C48   C31    1.36616       .     S
C33   H34    0.94016       .     S
H34   C33    0.94016       .     S
C33   C59    1.37995       .     S
C59   C33    1.37995       .     S
C35   C42    1.40528       .     S
C42   C35    1.40528       .     S
C35   N66    1.38010       .     S
N66   C35    1.38010       .     S
C35   C76    1.42411       .     S
C76   C35    1.42411       .     S
C36   C48    1.43347       .     S
C48   C36    1.43347       .     S
C37   C63    1.40007       .     S
C63   C37    1.40007       .     S
C38   H39    0.94036       .     S
H39   C38    0.94036       .     S
C38   C55    1.38654       .     S
C55   C38    1.38654       .     S
C40   H41    0.93992       .     S
H41   C40    0.93992       .     S
C43   C61    1.40734       .     S
C61   C43    1.40734       .     S
C43   C73    1.45513       .     S
C73   C43    1.45513       .     S
C44   H45    0.93985       .     S
H45   C44    0.93985       .     S
C44   C46    1.33684       .     S
C46   C44    1.33684       .     S
C46   H47    0.93980       .     S
H47   C46    0.93980       .     S
C48   H49    0.94061       .     S
H49   C48    0.94061       .     S
C50   H51    0.94014       .     S
H51   C50    0.94014       .     S
C50   C57    1.39096       .     S
C57   C50    1.39096       .     S
C52   H53    0.94022       .     S
H53   C52    0.94022       .     S
C52   C64    1.38215       .     S
C64   C52    1.38215       .     S
C54   C61    1.39090       .     S
C61   C54    1.39090       .     S
C54   N66    1.37223       .     S
N66   C54    1.37223       .     S
C54   C68    1.43128       .     S
C68   C54    1.43128       .     S
C55   H56    0.93950       .     S
H56   C55    0.93950       .     S
C57   H58    0.94015       .     S
H58   C57    0.94015       .     S
C57   C62    1.37304       .     S
C62   C57    1.37304       .     S
C59   H60    0.93963   1_554     S
H60   C59    0.93963   1_556     S
C61   C72    1.49960       .     S
C72   C61    1.49960       .     S
C62   C64    1.38496       .     S
C64   C62    1.38496       .     S
C62   C70    1.48612   1_565     S
C70   C62    1.48612   1_545     S
C63   C79    1.44783       .     S
C79   C63    1.44783       .     S
C64   H65    0.93978       .     S
H65   C64    0.93978       .     S
N66   H67    0.86971       .     S
H67   N66    0.86971       .     S
C68   H69    0.93974   1_455     S
H69   C68    0.93974   1_655     S
C68   C76    1.36870       .     S
C76   C68    1.36870       .     S
C72   C81    1.37519   1_545     S
C81   C72    1.37519   1_565     S
C72   C85    1.38554       .     S
C85   C72    1.38554       .     S
C73   H74    0.93961       .     S
H74   C73    0.93961       .     S
C73   C79    1.32927       .     S
C79   C73    1.32927       .     S
C75   C78    1.47787       .     S
C78   C75    1.47787       .     S
C76   H77    0.94012   1_455     S
H77   C76    0.94012   1_655     S
C78   C83    1.38509   1_655     S
C83   C78    1.38509   1_455     S
C78   C87    1.36645       .     S
C87   C78    1.36645       .     S
C79   H80    0.94021       .     S
H80   C79    0.94021       .     S
C81   H82    0.93933   1_565     S
H82   C81    0.93933   1_545     S
C81   C83    1.38444       .     S
C83   C81    1.38444       .     S
C83   H84    0.94001       .     S
H84   C83    0.94001       .     S
C85   H86    0.93947   1_455     S
H86   C85    0.93947   1_655     S
C85   C87    1.38844   1_445     S
C87   C85    1.38844   1_665     S
C87   H88    0.94049       .     S
H88   C87    0.94049       .     S
H89   N90    0.82547       .     S
N90   H89    0.82547       .     S
N90   H91    0.85211       .     S
H91   N90    0.85211       .     S
N90   H92    0.82982       .     S
H92   N90    0.82982       .     S
N90   H93    0.85435   1_455     S
H93   N90    0.85435   1_655     S
O6    H1     1.65446       .     S
H1    O6     1.65446       .     S
O7    H4     1.76286       .     S
H4    O7     1.76286       .     S
O2    H10    1.77725   1_556     S
H10   O2     1.77725   1_554     S
N13   H12    2.36262       .     S
H12   N13    2.36262       .     S
N14   H12    2.37493       .     S
H12   N14    2.37493       .     S
N13   H67    2.40348       .     S
H67   N13    2.40348       .     S
N14   H67    2.32473       .     S
H67   N14    2.32473       .     S
N13   H91    2.10710       .     S
H91   N13    2.10710       .     S
H1    O0     0.83005       .     S
O0    H1     0.83005       .     S
C71   O0     1.31147       .     S
O0    C71    1.31147       .     S
C71   O2     1.23357       .     S
O2    C71    1.23357       .     S
H4    O3     0.82980       .     S
O3    H4     0.82980       .     S
C70   O3     1.32625       .     S
O3    C70    1.32625       .     S
C70   O5     1.22423       .     S
O5    C70    1.22423       .     S
C20   O6     1.28123       .     S
O6    C20    1.28123       .     S
C20   O7     1.24044       .     S
O7    C20    1.24044       .     S
C75   O8     1.21390   1_554     S
O8    C75    1.21390   1_556     S
H10   O9     0.83027       .     S
O9    H10    0.83027       .     S
C75   O9     1.31111       .     S
O9    C75    1.31111       .     S
H12   N11    0.87051       .     S
N11   H12    0.87051       .     S
C21   N11    1.37161       .     S
N11   C21    1.37161       .     S
C36   N11    1.36139       .     S
N11   C36    1.36139       .     S
C43   N13    1.37448       .     S
N13   C43    1.37448       .     S
C63   N13    1.37832       .     S
N13   C63    1.37832       .     S
C16   N14    1.36295       .     S
N14   C16    1.36295       .     S
C22   N14    1.37130       .     S
N14   C22    1.37130       .     S
C18   C15    1.38516       .     S
C15   C18    1.38516       .     S
C20   C15    1.49224       .     S
C15   C20    1.49224       .     S
C40   C15    1.39082   1_455     S
C15   C40    1.39082   1_655     S
C27   C16    1.41212       .     S
C16   C27    1.41212       .     S
C46   C16    1.44734       .     S
C16   C46    1.44734       .     S
C23   C17    1.39932       .     S
C17   C23    1.39932       .     S
C28   C17    1.40940   1_655     S
C17   C28    1.40940   1_455     S
C42   C17    1.48928       .     S
C17   C42    1.48928       .     S
H19   C18    0.93935       .     S
C18   H19    0.93935       .     S
C28   C18    1.37740       .     S
C18   C28    1.37740       .     S
C31   C21    1.42634       .     S
C21   C31    1.42634       .     S
C37   C21    1.40440       .     S
C21   C37    1.40440       .     S
C42   C22    1.40427       .     S
C22   C42    1.40427       .     S
C44   C22    1.44793       .     S
C22   C44    1.44793       .     S
H24   C23    0.93928       .     S
C23   H24    0.93928       .     S
C40   C23    1.39045       .     S
C23   C40    1.39045       .     S
C55   C25    1.38927       .     S
C25   C55    1.38927       .     S
C59   C25    1.38464       .     S
C25   C59    1.38464       .     S
C71   C25    1.47925   1_556     S
C25   C71    1.47925   1_554     S
C27   C26    1.49535       .     S
C26   C27    1.49535       .     S
C50   C26    1.38949       .     S
C26   C50    1.38949       .     S
C52   C26    1.39838       .     S
C26   C52    1.39838       .     S
C36   C27    1.39952       .     S
C27   C36    1.39952       .     S
H29   C28    0.93973       .     S
C28   H29    0.93973       .     S
C33   C30    1.39893       .     S
C30   C33    1.39893       .     S
C37   C30    1.50107       .     S
C30   C37    1.50107       .     S
C38   C30    1.37769       .     S
C30   C38    1.37769       .     S
H32   C31    0.94058       .     S
C31   H32    0.94058       .     S
C48   C31    1.36616       .     S
C31   C48    1.36616       .     S
H34   C33    0.94016       .     S
C33   H34    0.94016       .     S
C59   C33    1.37995       .     S
C33   C59    1.37995       .     S
C42   C35    1.40528       .     S
C35   C42    1.40528       .     S
N66   C35    1.38010       .     S
C35   N66    1.38010       .     S
C76   C35    1.42411       .     S
C35   C76    1.42411       .     S
C48   C36    1.43347       .     S
C36   C48    1.43347       .     S
C63   C37    1.40007       .     S
C37   C63    1.40007       .     S
H39   C38    0.94036       .     S
C38   H39    0.94036       .     S
C55   C38    1.38654       .     S
C38   C55    1.38654       .     S
H41   C40    0.93992       .     S
C40   H41    0.93992       .     S
C61   C43    1.40734       .     S
C43   C61    1.40734       .     S
C73   C43    1.45513       .     S
C43   C73    1.45513       .     S
H45   C44    0.93985       .     S
C44   H45    0.93985       .     S
C46   C44    1.33684       .     S
C44   C46    1.33684       .     S
H47   C46    0.93980       .     S
C46   H47    0.93980       .     S
H49   C48    0.94061       .     S
C48   H49    0.94061       .     S
H51   C50    0.94014       .     S
C50   H51    0.94014       .     S
C57   C50    1.39096       .     S
C50   C57    1.39096       .     S
H53   C52    0.94022       .     S
C52   H53    0.94022       .     S
C64   C52    1.38215       .     S
C52   C64    1.38215       .     S
C61   C54    1.39090       .     S
C54   C61    1.39090       .     S
N66   C54    1.37223       .     S
C54   N66    1.37223       .     S
C68   C54    1.43128       .     S
C54   C68    1.43128       .     S
H56   C55    0.93950       .     S
C55   H56    0.93950       .     S
H58   C57    0.94015       .     S
C57   H58    0.94015       .     S
C62   C57    1.37304       .     S
C57   C62    1.37304       .     S
H60   C59    0.93963   1_556     S
C59   H60    0.93963   1_554     S
C72   C61    1.49960       .     S
C61   C72    1.49960       .     S
C64   C62    1.38496       .     S
C62   C64    1.38496       .     S
C70   C62    1.48612   1_545     S
C62   C70    1.48612   1_565     S
C79   C63    1.44783       .     S
C63   C79    1.44783       .     S
H65   C64    0.93978       .     S
C64   H65    0.93978       .     S
H67   N66    0.86971       .     S
N66   H67    0.86971       .     S
H69   C68    0.93974   1_655     S
C68   H69    0.93974   1_455     S
C76   C68    1.36870       .     S
C68   C76    1.36870       .     S
C81   C72    1.37519   1_565     S
C72   C81    1.37519   1_545     S
C85   C72    1.38554       .     S
C72   C85    1.38554       .     S
H74   C73    0.93961       .     S
C73   H74    0.93961       .     S
C79   C73    1.32927       .     S
C73   C79    1.32927       .     S
C78   C75    1.47787       .     S
C75   C78    1.47787       .     S
H77   C76    0.94012   1_655     S
C76   H77    0.94012   1_455     S
C83   C78    1.38509   1_455     S
C78   C83    1.38509   1_655     S
C87   C78    1.36645       .     S
C78   C87    1.36645       .     S
H80   C79    0.94021       .     S
C79   H80    0.94021       .     S
H82   C81    0.93933   1_545     S
C81   H82    0.93933   1_565     S
C83   C81    1.38444       .     S
C81   C83    1.38444       .     S
H84   C83    0.94001       .     S
C83   H84    0.94001       .     S
H86   C85    0.93947   1_655     S
C85   H86    0.93947   1_455     S
C87   C85    1.38844   1_665     S
C85   C87    1.38844   1_445     S
H88   C87    0.94049       .     S
C87   H88    0.94049       .     S
N90   H89    0.82547       .     S
H89   N90    0.82547       .     S
H91   N90    0.85211       .     S
N90   H91    0.85211       .     S
H92   N90    0.82982       .     S
N90   H92    0.82982       .     S
H93   N90    0.85435   1_655     S
N90   H93    0.85435   1_455     S
