data_I
_chemical_name_common  '/data/user2/wty/HOF/MOFDiff/mofdiff/data/test/250-hof-zstu-1'
_cell_length_a 16.16250
_cell_length_b 16.72880
_cell_length_c 32.80310
_cell_angle_alpha 90.00000
_cell_angle_beta  90.00000
_cell_angle_gamma 90.00000
_space_group_name_H-M_alt      'P 1'


loop_
_space_group_symop_operation_xyz
  'x, y, z' 

loop_
_atom_site_label
_atom_site_fract_x
_atom_site_fract_y
_atom_site_fract_z
_atom_site_type_symbol
O0     0.72326  0.79397   0.2354     O
H1     0.74869  0.76289  0.25114     H
O2     0.84995  0.81338  0.21002     O
O3     0.76381  0.81098  0.79123     O
O4     0.87961  0.82655  0.82694     O
H5     0.89898  0.79601  0.80899     H
O6     0.35015  0.46027  0.77705     O
H7     0.32537  0.47894  0.75665     H
O8     0.22482  0.40819   0.7896     O
O9      0.3426  0.51014   0.2298     O
H10    0.31547  0.53524   0.2475     H
O11    0.21877  0.45328  0.21897     O
N12    0.53598  0.15021  0.07643     N
H13    0.53097  0.14418   0.0499     H
N14    0.61039  0.04943  0.01493     N
N15    0.53473  0.14108  0.94952     N
H16    0.52883  0.13775  0.97614     H
N17    0.45254  0.23869  0.01148     N
C18     0.7762  0.82687  0.20967     C
C19    0.73611  0.88148  0.17976     C
C20    0.65257  0.90028  0.18218     C
H21    0.61985  0.87864  0.20356     H
C22    0.61656   0.9506  0.15349     C
H23    0.55948  0.96351   0.1556     H
C24    0.66323   0.9822  0.12176     C
C25    0.74754  0.96375  0.11988     C
H26     0.7804  0.98546  0.09857     H
C27    0.78387  0.91425  0.14866     C
H28    0.84134  0.90269  0.14715     H
C29    0.62386  0.03242  0.08956     C
C30    0.58161  0.10139  0.10144     C
C31    0.57504  0.13363  0.14164     C
H32    0.60145  0.11306  0.16529     H
C33    0.52487  0.19842   0.1404     C
H34    0.50944   0.2305  0.16305     H
C35    0.49901  0.21029  0.09899     C
C36    0.44257  0.26712  0.08507     C
C37     0.4036  0.31964  0.11665     C
C38     0.4508  0.37624  0.13773     C
H39     0.5073  0.38375  0.13082     H
C40     0.4158  0.42125  0.16847     C
H41    0.44867  0.45884  0.18292     H
C42     0.3334  0.41205  0.17836     C
C43    0.28585  0.35614   0.1577     C
H44    0.22926  0.34905  0.16464     H
C45    0.32104  0.31057  0.12688     C
H46    0.28809  0.27272  0.11265     H
C47     0.2945  0.46088  0.21111     C
C48    0.41871  0.27822  0.04399     C
C49     0.3596    0.337  0.03027     C
H50    0.32745  0.37147  0.04696     H
C51     0.3588   0.3336  0.98921     C
H52    0.32623  0.36544  0.97141     H
C53    0.41696  0.27241  0.97746     C
C54    0.43906  0.25398  0.93724     C
C55    0.39984   0.3005  0.90295     C
C56     0.4452  0.35736  0.88197     C
H57    0.49927  0.37067  0.89114     H
C58     0.4135  0.39505  0.84797     C
H59    0.44583  0.43331  0.83371     H
C60    0.33454  0.37706  0.83474     C
C61    0.28725   0.3216  0.85575     C
H62    0.23264  0.30971  0.84692     H
C63    0.31996  0.28331  0.88986     C
H64    0.28752  0.24526  0.90425     H
C65     0.2996  0.41686  0.79814     C
C66     0.4957  0.19599   0.9251     C
C67    0.52394  0.18141  0.88442     C
H68    0.50804  0.21047   0.8608     H
C69    0.57705  0.11923  0.88544     C
H70    0.60505  0.09709  0.86262     H
C71    0.58409  0.09229  0.92659     C
C72    0.62889  0.02674  0.94119     C
C73    0.67414   0.9774  0.91025     C
C74    0.75889  0.96371  0.91373     C
H75     0.7884  0.98553  0.93617     H
C76    0.80053  0.91876  0.88495     C
H77    0.85839  0.91024  0.88765     H
C78    0.75844  0.88607  0.85219     C
C79    0.67355  0.89872   0.8485     C
H80    0.64418   0.8766  0.82609     H
C81    0.63207  0.94343  0.87745     C
H82    0.57405  0.95112  0.87496     H
C83     0.8007  0.83752  0.82036     C
C84    0.63515  0.00429  0.98229     C
C85    0.66992  0.92966  0.99596     C
H86    0.68993  0.88758   0.9792     H
C87     0.6687  0.93085  0.03701     C
H88    0.68783  0.89001  0.05479     H
C89     0.6324  0.00679  0.04873     C
O90    0.04892    0.259  0.22852     O
H91    0.08546  0.26568  0.24641     H
C92     0.9783   0.2297  0.24641     C
H93    0.93662  0.21926  0.22535     H
H94    0.95669  0.26904  0.26582     H
H95    0.99108  0.17988   0.2608     H
loop_
_geom_bond_atom_site_label_1
_geom_bond_atom_site_label_2
_geom_bond_distance
_geom_bond_site_symmetry_2
_ccdc_geom_bond_type
H13   N14    2.34008       .     S
N14   H13    2.34008       .     S
H13   N17    2.38640       .     S
N17   H13    2.38640       .     S
H16   N14    2.35366   1_556     S
N14   H16    2.35366   1_554     S
H16   N17    2.39074   1_556     S
N17   H16    2.39074   1_554     S
O0    H1     0.84015       .     S
H1    O0     0.84015       .     S
O0    C18    1.32190       .     S
C18   O0     1.32190       .     S
O2    C18    1.21321       .     S
C18   O2     1.21321       .     S
O3    C83    1.21066       .     S
C83   O3     1.21066       .     S
O4    H5     0.84008       .     S
H5    O4     0.84008       .     S
O4    C83    1.30647       .     S
C83   O4     1.30647       .     S
O6    H7     0.84010       .     S
H7    O6     0.84010       .     S
O6    C65    1.29363       .     S
C65   O6     1.29363       .     S
O8    C65    1.24912       .     S
C65   O8     1.24912       .     S
O9    H10    0.84006       .     S
H10   O9     0.84006       .     S
O9    C47    1.28815       .     S
C47   O9     1.28815       .     S
O11   C47    1.25729       .     S
C47   O11    1.25729       .     S
N12   H13    0.87983       .     S
H13   N12    0.87983       .     S
N12   C30    1.37258       .     S
C30   N12    1.37258       .     S
N12   C35    1.38378       .     S
C35   N12    1.38378       .     S
N14   C84    1.36995   1_554     S
C84   N14    1.36995   1_556     S
N14   C89    1.36553       .     S
C89   N14    1.36553       .     S
N15   H16    0.88018       .     S
H16   N15    0.88018       .     S
N15   C66    1.37237       .     S
C66   N15    1.37237       .     S
N15   C71    1.36689       .     S
C71   N15    1.36689       .     S
N17   C48    1.36877       .     S
C48   N17    1.36877       .     S
N17   C53    1.37632   1_554     S
C53   N17    1.37632   1_556     S
C18   C19    1.48898       .     S
C19   C18    1.48898       .     S
C19   C20    1.38863       .     S
C20   C19    1.38863       .     S
C19   C27    1.39182       .     S
C27   C19    1.39182       .     S
C20   H21    0.95004       .     S
H21   C20    0.95004       .     S
C20   C22    1.39035       .     S
C22   C20    1.39035       .     S
C22   H23    0.95002       .     S
H23   C22    0.95002       .     S
C22   C24    1.38988       .     S
C24   C22    1.38988       .     S
C24   C25    1.39854       .     S
C25   C24    1.39854       .     S
C24   C29    1.49211   1_565     S
C29   C24    1.49211   1_545     S
C25   H26    0.95006       .     S
H26   C25    0.95006       .     S
C25   C27    1.38628       .     S
C27   C25    1.38628       .     S
C27   H28    0.95007       .     S
H28   C27    0.95007       .     S
C29   C30    1.39621       .     S
C30   C29    1.39621       .     S
C29   C89    1.41306       .     S
C89   C29    1.41306       .     S
C30   C31    1.42867       .     S
C31   C30    1.42867       .     S
C31   H32    0.94998       .     S
H32   C31    0.94998       .     S
C31   C33    1.35422       .     S
C33   C31    1.35422       .     S
C33   H34    0.94986       .     S
H34   C33    0.94986       .     S
C33   C35    1.43503       .     S
C35   C33    1.43503       .     S
C35   C36    1.39444       .     S
C36   C35    1.39444       .     S
C36   C37    1.49726       .     S
C37   C36    1.49726       .     S
C36   C48    1.41389       .     S
C48   C36    1.41389       .     S
C37   C38    1.39880       .     S
C38   C37    1.39880       .     S
C37   C45    1.38427       .     S
C45   C37    1.38427       .     S
C38   H39    0.94924       .     S
H39   C38    0.94924       .     S
C38   C40    1.37977       .     S
C40   C38    1.37977       .     S
C40   H41    0.94992       .     S
H41   C40    0.94992       .     S
C40   C42    1.37935       .     S
C42   C40    1.37935       .     S
C42   C43    1.38735       .     S
C43   C42    1.38735       .     S
C42   C47    1.48885       .     S
C47   C42    1.48885       .     S
C43   H44    0.94997       .     S
H44   C43    0.94997       .     S
C43   C45    1.38807       .     S
C45   C43    1.38807       .     S
C45   H46    0.94996       .     S
H46   C45    0.94996       .     S
C48   C49    1.44298       .     S
C49   C48    1.44298       .     S
C49   H50    0.94988       .     S
H50   C49    0.94988       .     S
C49   C51    1.34816   1_554     S
C51   C49    1.34816   1_556     S
C51   H52    0.94961       .     S
H52   C51    0.94961       .     S
C51   C53    1.44222       .     S
C53   C51    1.44222       .     S
C53   C54    1.40118       .     S
C54   C53    1.40118       .     S
C54   C55    1.50754       .     S
C55   C54    1.50754       .     S
C54   C66    1.39202       .     S
C66   C54    1.39202       .     S
C55   C56    1.38416       .     S
C56   C55    1.38416       .     S
C55   C63    1.39065       .     S
C63   C55    1.39065       .     S
C56   H57    0.95067       .     S
H57   C56    0.95067       .     S
C56   C58    1.37984       .     S
C58   C56    1.37984       .     S
C58   H59    0.94948       .     S
H59   C58    0.94948       .     S
C58   C60    1.38115       .     S
C60   C58    1.38115       .     S
C60   C61    1.38562       .     S
C61   C60    1.38562       .     S
C60   C65    1.48446       .     S
C65   C60    1.48446       .     S
C61   H62    0.95000       .     S
H62   C61    0.95000       .     S
C61   C63    1.39347       .     S
C63   C61    1.39347       .     S
C63   H64    0.95021       .     S
H64   C63    0.95021       .     S
C66   C67    1.43127       .     S
C67   C66    1.43127       .     S
C67   H68    0.95010       .     S
H68   C67    0.95010       .     S
C67   C69    1.34906       .     S
C69   C67    1.34906       .     S
C69   H70    0.94991       .     S
H70   C69    0.94991       .     S
C69   C71    1.42764       .     S
C71   C69    1.42764       .     S
C71   C72    1.39862       .     S
C72   C71    1.39862       .     S
C72   C73    1.49875   1_545     S
C73   C72    1.49875   1_565     S
C72   C84    1.40319       .     S
C84   C72    1.40319       .     S
C73   C74    1.39347       .     S
C74   C73    1.39347       .     S
C73   C81    1.39389       .     S
C81   C73    1.39389       .     S
C74   H75    0.95004       .     S
H75   C74    0.95004       .     S
C74   C76    1.38190       .     S
C76   C74    1.38190       .     S
C76   H77    0.95010       .     S
H77   C76    0.95010       .     S
C76   C78    1.38444       .     S
C78   C76    1.38444       .     S
C78   C79    1.39353       .     S
C79   C78    1.39353       .     S
C78   C83    1.48874       .     S
C83   C78    1.48874       .     S
C79   H80    0.95009       .     S
H80   C79    0.95009       .     S
C79   C81    1.38229       .     S
C81   C79    1.38229       .     S
C81   H82    0.95005       .     S
H82   C81    0.95005       .     S
C84   C85    1.44068   1_545     S
C85   C84    1.44068   1_565     S
C85   H86    0.94994       .     S
H86   C85    0.94994       .     S
C85   C87    1.34686   1_556     S
C87   C85    1.34686   1_554     S
C87   H88    0.95002       .     S
H88   C87    0.95002       .     S
C87   C89    1.45117   1_565     S
C89   C87    1.45117   1_545     S
O90   H91    0.84004       .     S
H91   O90    0.84004       .     S
O90   C92    1.37384   1_455     S
C92   O90    1.37384   1_655     S
C92   H93    0.98059       .     S
H93   C92    0.98059       .     S
C92   H94    0.98005       .     S
H94   C92    0.98005       .     S
C92   H95    0.97984       .     S
H95   C92    0.97984       .     S
N14   H13    2.34008       .     S
H13   N14    2.34008       .     S
N17   H13    2.38640       .     S
H13   N17    2.38640       .     S
N14   H16    2.35366   1_554     S
H16   N14    2.35366   1_556     S
N17   H16    2.39074   1_554     S
H16   N17    2.39074   1_556     S
H1    O0     0.84015       .     S
O0    H1     0.84015       .     S
C18   O0     1.32190       .     S
O0    C18    1.32190       .     S
C18   O2     1.21321       .     S
O2    C18    1.21321       .     S
C83   O3     1.21066       .     S
O3    C83    1.21066       .     S
H5    O4     0.84008       .     S
O4    H5     0.84008       .     S
C83   O4     1.30647       .     S
O4    C83    1.30647       .     S
H7    O6     0.84010       .     S
O6    H7     0.84010       .     S
C65   O6     1.29363       .     S
O6    C65    1.29363       .     S
C65   O8     1.24912       .     S
O8    C65    1.24912       .     S
H10   O9     0.84006       .     S
O9    H10    0.84006       .     S
C47   O9     1.28815       .     S
O9    C47    1.28815       .     S
C47   O11    1.25729       .     S
O11   C47    1.25729       .     S
H13   N12    0.87983       .     S
N12   H13    0.87983       .     S
C30   N12    1.37258       .     S
N12   C30    1.37258       .     S
C35   N12    1.38378       .     S
N12   C35    1.38378       .     S
C84   N14    1.36995   1_556     S
N14   C84    1.36995   1_554     S
C89   N14    1.36553       .     S
N14   C89    1.36553       .     S
H16   N15    0.88018       .     S
N15   H16    0.88018       .     S
C66   N15    1.37237       .     S
N15   C66    1.37237       .     S
C71   N15    1.36689       .     S
N15   C71    1.36689       .     S
C48   N17    1.36877       .     S
N17   C48    1.36877       .     S
C53   N17    1.37632   1_556     S
N17   C53    1.37632   1_554     S
C19   C18    1.48898       .     S
C18   C19    1.48898       .     S
C20   C19    1.38863       .     S
C19   C20    1.38863       .     S
C27   C19    1.39182       .     S
C19   C27    1.39182       .     S
H21   C20    0.95004       .     S
C20   H21    0.95004       .     S
C22   C20    1.39035       .     S
C20   C22    1.39035       .     S
H23   C22    0.95002       .     S
C22   H23    0.95002       .     S
C24   C22    1.38988       .     S
C22   C24    1.38988       .     S
C25   C24    1.39854       .     S
C24   C25    1.39854       .     S
C29   C24    1.49211   1_545     S
C24   C29    1.49211   1_565     S
H26   C25    0.95006       .     S
C25   H26    0.95006       .     S
C27   C25    1.38628       .     S
C25   C27    1.38628       .     S
H28   C27    0.95007       .     S
C27   H28    0.95007       .     S
C30   C29    1.39621       .     S
C29   C30    1.39621       .     S
C89   C29    1.41306       .     S
C29   C89    1.41306       .     S
C31   C30    1.42867       .     S
C30   C31    1.42867       .     S
H32   C31    0.94998       .     S
C31   H32    0.94998       .     S
C33   C31    1.35422       .     S
C31   C33    1.35422       .     S
H34   C33    0.94986       .     S
C33   H34    0.94986       .     S
C35   C33    1.43503       .     S
C33   C35    1.43503       .     S
C36   C35    1.39444       .     S
C35   C36    1.39444       .     S
C37   C36    1.49726       .     S
C36   C37    1.49726       .     S
C48   C36    1.41389       .     S
C36   C48    1.41389       .     S
C38   C37    1.39880       .     S
C37   C38    1.39880       .     S
C45   C37    1.38427       .     S
C37   C45    1.38427       .     S
H39   C38    0.94924       .     S
C38   H39    0.94924       .     S
C40   C38    1.37977       .     S
C38   C40    1.37977       .     S
H41   C40    0.94992       .     S
C40   H41    0.94992       .     S
C42   C40    1.37935       .     S
C40   C42    1.37935       .     S
C43   C42    1.38735       .     S
C42   C43    1.38735       .     S
C47   C42    1.48885       .     S
C42   C47    1.48885       .     S
H44   C43    0.94997       .     S
C43   H44    0.94997       .     S
C45   C43    1.38807       .     S
C43   C45    1.38807       .     S
H46   C45    0.94996       .     S
C45   H46    0.94996       .     S
C49   C48    1.44298       .     S
C48   C49    1.44298       .     S
H50   C49    0.94988       .     S
C49   H50    0.94988       .     S
C51   C49    1.34816   1_556     S
C49   C51    1.34816   1_554     S
H52   C51    0.94961       .     S
C51   H52    0.94961       .     S
C53   C51    1.44222       .     S
C51   C53    1.44222       .     S
C54   C53    1.40118       .     S
C53   C54    1.40118       .     S
C55   C54    1.50754       .     S
C54   C55    1.50754       .     S
C66   C54    1.39202       .     S
C54   C66    1.39202       .     S
C56   C55    1.38416       .     S
C55   C56    1.38416       .     S
C63   C55    1.39065       .     S
C55   C63    1.39065       .     S
H57   C56    0.95067       .     S
C56   H57    0.95067       .     S
C58   C56    1.37984       .     S
C56   C58    1.37984       .     S
H59   C58    0.94948       .     S
C58   H59    0.94948       .     S
C60   C58    1.38115       .     S
C58   C60    1.38115       .     S
C61   C60    1.38562       .     S
C60   C61    1.38562       .     S
C65   C60    1.48446       .     S
C60   C65    1.48446       .     S
H62   C61    0.95000       .     S
C61   H62    0.95000       .     S
C63   C61    1.39347       .     S
C61   C63    1.39347       .     S
H64   C63    0.95021       .     S
C63   H64    0.95021       .     S
C67   C66    1.43127       .     S
C66   C67    1.43127       .     S
H68   C67    0.95010       .     S
C67   H68    0.95010       .     S
C69   C67    1.34906       .     S
C67   C69    1.34906       .     S
H70   C69    0.94991       .     S
C69   H70    0.94991       .     S
C71   C69    1.42764       .     S
C69   C71    1.42764       .     S
C72   C71    1.39862       .     S
C71   C72    1.39862       .     S
C73   C72    1.49875   1_565     S
C72   C73    1.49875   1_545     S
C84   C72    1.40319       .     S
C72   C84    1.40319       .     S
C74   C73    1.39347       .     S
C73   C74    1.39347       .     S
C81   C73    1.39389       .     S
C73   C81    1.39389       .     S
H75   C74    0.95004       .     S
C74   H75    0.95004       .     S
C76   C74    1.38190       .     S
C74   C76    1.38190       .     S
H77   C76    0.95010       .     S
C76   H77    0.95010       .     S
C78   C76    1.38444       .     S
C76   C78    1.38444       .     S
C79   C78    1.39353       .     S
C78   C79    1.39353       .     S
C83   C78    1.48874       .     S
C78   C83    1.48874       .     S
H80   C79    0.95009       .     S
C79   H80    0.95009       .     S
C81   C79    1.38229       .     S
C79   C81    1.38229       .     S
H82   C81    0.95005       .     S
C81   H82    0.95005       .     S
C85   C84    1.44068   1_565     S
C84   C85    1.44068   1_545     S
H86   C85    0.94994       .     S
C85   H86    0.94994       .     S
C87   C85    1.34686   1_554     S
C85   C87    1.34686   1_556     S
H88   C87    0.95002       .     S
C87   H88    0.95002       .     S
C89   C87    1.45117   1_545     S
C87   C89    1.45117   1_565     S
H91   O90    0.84004       .     S
O90   H91    0.84004       .     S
C92   O90    1.37384   1_655     S
O90   C92    1.37384   1_455     S
H93   C92    0.98059       .     S
C92   H93    0.98059       .     S
H94   C92    0.98005       .     S
C92   H94    0.98005       .     S
H95   C92    0.97984       .     S
C92   H95    0.97984       .     S
