data_I
_chemical_name_common  '/data/user2/wty/HOF/MOFDiff/mofdiff/data/test/250-hof-zstu-3'
_cell_length_a 16.47100
_cell_length_b 17.65500
_cell_length_c 20.88500
_cell_angle_alpha 72.46900
_cell_angle_beta  72.10400
_cell_angle_gamma 70.02300
_space_group_name_H-M_alt      'P 1'


loop_
_space_group_symop_operation_xyz
  'x, y, z' 

loop_
_atom_site_label
_atom_site_fract_x
_atom_site_fract_y
_atom_site_fract_z
_atom_site_type_symbol
O0      0.6992   0.5804  0.46892     O
H1     0.66475    0.598  0.50362     H
O2      0.5786   0.6396  0.42752     O
O3     0.85578  0.99189  0.02497     O
O4     0.71663  0.06029  0.06552     O
H5     0.70484  0.02109  0.05867     H
N6     0.98676  0.57518  0.06513     N
H7     0.99578    0.541   0.0389     H
N8     0.90799  0.44605  0.07136     N
C9     0.88186  0.38157  0.06887     C
C10     0.8639  0.46401  0.13423     C
C11    0.92972  0.57473  0.12812     C
C12    0.02848  0.63666  0.04812     C
C13    0.88178  0.26743  0.02181     C
C14    0.99707  0.67537  0.10541     C
H15    0.01501  0.71932  0.10913     H
C16    0.81588  0.53836  0.22927     C
C17    0.87239  0.52442  0.16068     C
C18    0.91235  0.34112  0.01372     C
C19    0.79291  0.27328  0.03213     C
H20    0.74984  0.32508  0.03405     H
C21    0.93668  0.63834  0.15405     C
H22    0.90504  0.65224  0.19724     H
C23    0.82103  0.35753   0.1324     C
H24    0.79469  0.31361  0.14359     H
C25    0.76656  0.20406  0.03966     C
H26    0.70521  0.20863  0.04806     H
C27    0.91754  0.12204  0.02446     C
H28    0.96056  0.07052  0.02098     H
C29    0.94407  0.19059  0.01885     C
H30    0.00511  0.18544  0.01294     H
C31    0.82785  0.12833   0.0352     C
C32     0.8526   0.5204   0.2852     C
H33    0.91429  0.49428  0.28093     H
C34    0.80857  0.40908  0.17289     C
H35    0.77112  0.40938  0.21771     H
C36     0.7124   0.5773  0.35508     C
C37    0.79782  0.05439  0.04222     C
C38     0.8007   0.5398  0.34758     C
H39    0.82725  0.52672  0.38539     H
C40     0.6573   0.6017   0.4205     C
C41     0.7249   0.5729  0.23851     C
H42    0.69717  0.58368  0.20177     H
C43     0.6742   0.5918   0.3014     C
H44    0.61194  0.61531   0.3072     H
O45    0.73681   0.5975  0.61535     O
H46    0.75966  0.60354  0.57286     H
O47     0.6135   0.6292  0.57831     O
O48    0.80394  0.72238  0.45651     O
H49    0.75822  0.71524  0.48671     H
O50    0.86168  0.59215  0.50807     O
O51    0.21468  0.06118  0.08747     O
O52    0.17009  0.13389  0.98928     O
H53     0.1634  0.08879  0.98932     H
O54    0.50957  0.05051   0.1014     O
O55    0.63716  0.95764  0.07026     O
C56    0.25106   0.4259  0.06136     C
N57    0.27429  0.66651  0.13529     N
N58    0.40892  0.65057  0.00772     N
H59     0.3752  0.61943  0.03631     H
N60    0.34379   0.5215  0.99803     N
N61    0.21654  0.53023  0.12953     N
H62    0.25409  0.55831  0.10237     H
C63    0.44953   0.5884  0.90695     C
C64    0.42493  0.71396  0.02233     C
C65     0.2067  0.46148    0.118     C
C66    0.40041  0.53033  0.93477     C
C67    0.45346  0.64299   0.9417     C
C68    0.23295   0.3493  0.05983     C
C69    0.31248   0.4568   0.0043     C
C70    0.15928  0.54845  0.18948     C
C71    0.40442  0.46919  0.89978     C
H72     0.4386  0.46265  0.85498     H
C73    0.20741   0.6663  0.19357     C
C74    0.35089  0.42378  0.94251     C
H75    0.34006  0.37855  0.93406     H
C76    0.15254  0.61302  0.21861     C
C77    0.50073  0.70489  0.91327     C
H78    0.53742  0.71431  0.86824     H
C79    0.48346  0.74753  0.96243     C
H80    0.50631  0.79202  0.95787     H
C81    0.38464  0.74619  0.08154     C
C82    0.31337  0.72494  0.13284     C
C83     0.2111  0.20349   0.0488     C
C84    0.07988  0.62426  0.28185     C
C85    0.50232  0.59313  0.83446     C
C86     0.2688  0.76228  0.19219     C
H87    0.28315  0.80409  0.20291     H
C88     0.1101  0.48879  0.21675     C
H89    0.06472  0.48658  0.25785     H
C90    0.42338  0.80859  0.08723     C
C91    0.59435   0.5728  0.81994     C
H92    0.62401   0.5545  0.85661     H
C93    0.17313   0.2795  0.00962     C
H94     0.1398  0.28192  0.97879     H
C95    0.13905  0.43576  0.17409     C
H96    0.11807  0.38956  0.18035     H
C97    0.18367  0.35137  0.01534     C
H98    0.15702  0.40286  0.98864     H
C99    0.27068  0.27304  0.09926     C
H100   0.30458  0.27045  0.12974     H
C101   0.19895  0.12543  0.04423     C
C102     0.602  0.60572  0.69797     C
C103   0.50624  0.92236  0.08772     C
C104   0.25897  0.20113  0.09417     C
H105   0.28387  0.14975  0.12194     H
C106     0.939   0.6451  0.39666     C
C107    0.0792  0.56367  0.34256     C
H108   0.12722  0.51492  0.34533     H
C109    0.3757  0.89042  0.08696     C
H110   0.31468  0.90816  0.08595     H
C111    0.6434    0.579  0.75214     C
H112   0.70629  0.56468  0.74302     H
C113    0.2036  0.72677  0.22902     C
H114   0.16276  0.73898  0.27043     H
C115   0.00939  0.69642  0.27943     C
H116   0.00898  0.73851  0.23842     H
C117    0.0089   0.5743  0.39874     C
H118   0.00866  0.53205  0.43966     H
C119   0.41691  0.94608  0.08816     C
H120   0.38334  0.00158   0.0893     H
C121   0.55402  0.84165  0.08662     C
H122   0.61574  0.82453  0.08517     H
C123   0.55033  0.98377  0.08729     C
C124    0.9401   0.7064  0.33701     C
H125   0.89292  0.75591  0.33541     H
C126   0.46074    0.619  0.78005     C
H127   0.39789  0.63242   0.7891     H
C128    0.5104   0.6257    0.712     C
H129   0.48101    0.644  0.67514     H
C130   0.51184  0.78549  0.08766     C
H131   0.54493  0.72945   0.0887     H
C132    0.6545   0.6116  0.62525     C
C133    0.8609   0.6569  0.45678     C
N134    0.5951   0.1078   0.1912     N
H135   0.62143  0.10458  0.14651     H
H136   0.53614  0.13258  0.19414     H
C137    0.6079   0.0226   0.2362     C
H138   0.57289  0.99364  0.22697     H
H139   0.58846  0.02624  0.28472     H
H140   0.67086  0.99213  0.22627     H
C141    0.6337   0.1576   0.2123     C
H142   0.69636  0.12922  0.21183     H
H143   0.60171  0.16522    0.259     H
H144   0.62864  0.21163  0.18026     H
loop_
_geom_bond_atom_site_label_1
_geom_bond_atom_site_label_2
_geom_bond_distance
_geom_bond_site_symmetry_2
_ccdc_geom_bond_type
H1    O47    1.68521       .     S
O47   H1     1.68521       .     S
H5    O55    1.75505   1_545     S
O55   H5     1.75505   1_565     S
H7    N8     2.39369       .     S
N8    H7     2.39369       .     S
H46   O50    1.79741       .     S
O50   H46    1.79741       .     S
H59   N57    2.38878       .     S
N57   H59    2.38878       .     S
H59   N60    2.36521   1_554     S
N60   H59    2.36521   1_556     S
H62   N57    2.36614       .     S
N57   H62    2.36614       .     S
H62   N60    2.36057   1_554     S
N60   H62    2.36057   1_556     S
H135  O4     2.06404       .     S
O4    H135   2.06404       .     S
O0    H1     0.84035       .     S
H1    O0     0.84035       .     S
O0    C40    1.28950       .     S
C40   O0     1.28950       .     S
O2    C40    1.22441       .     S
C40   O2     1.22441       .     S
O3    C37    1.25183   1_565     S
C37   O3     1.25183   1_545     S
O4    H5     0.84006       .     S
H5    O4     0.84006       .     S
O4    C37    1.25355       .     S
C37   O4     1.25355       .     S
N6    H7     0.87989       .     S
H7    N6     0.87989       .     S
N6    C11    1.36110       .     S
C11   N6     1.36110       .     S
N6    C12    1.37981   1_655     S
C12   N6     1.37981   1_455     S
N8    C9     1.36677       .     S
C9    N8     1.36677       .     S
N8    C10    1.36362       .     S
C10   N8     1.36362       .     S
C9    C18    1.40850       .     S
C18   C9     1.40850       .     S
C9    C23    1.44179       .     S
C23   C9     1.44179       .     S
C10   C17    1.40233       .     S
C17   C10    1.40233       .     S
C10   C34    1.45013       .     S
C34   C10    1.45013       .     S
C11   C17    1.39915       .     S
C17   C11    1.39915       .     S
C11   C21    1.43532       .     S
C21   C11    1.43532       .     S
C12   C14    1.42722   1_455     S
C14   C12    1.42722   1_655     S
C13   C18    1.49585       .     S
C18   C13    1.49585       .     S
C13   C19    1.38419       .     S
C19   C13    1.38419       .     S
C13   C29    1.39906       .     S
C29   C13    1.39906       .     S
C14   H15    0.95001   1_655     S
H15   C14    0.95001   1_455     S
C14   C21    1.36820       .     S
C21   C14    1.36820       .     S
C16   C17    1.48842       .     S
C17   C16    1.48842       .     S
C16   C32    1.38232       .     S
C32   C16    1.38232       .     S
C16   C41    1.38689       .     S
C41   C16    1.38689       .     S
C19   H20    0.95002       .     S
H20   C19    0.95002       .     S
C19   C25    1.38248       .     S
C25   C19    1.38248       .     S
C21   H22    0.95001       .     S
H22   C21    0.95001       .     S
C23   H24    0.94999       .     S
H24   C23    0.94999       .     S
C23   C34    1.34718       .     S
C34   C23    1.34718       .     S
C25   H26    0.94987       .     S
H26   C25    0.94987       .     S
C25   C31    1.38216       .     S
C31   C25    1.38216       .     S
C27   H28    0.95000       .     S
H28   C27    0.95000       .     S
C27   C29    1.38342       .     S
C29   C27    1.38342       .     S
C27   C31    1.39437       .     S
C31   C27    1.39437       .     S
C29   H30    0.94992   1_655     S
H30   C29    0.94992   1_455     S
C31   C37    1.50052       .     S
C37   C31    1.50052       .     S
C32   H33    0.94973       .     S
H33   C32    0.94973       .     S
C32   C38    1.38913       .     S
C38   C32    1.38913       .     S
C34   H35    0.95007       .     S
H35   C34    0.95007       .     S
C36   C38    1.35744       .     S
C38   C36    1.35744       .     S
C36   C40    1.48370       .     S
C40   C36    1.48370       .     S
C36   C43    1.36706       .     S
C43   C36    1.36706       .     S
C38   H39    0.94947       .     S
H39   C38    0.94947       .     S
C41   H42    0.94954       .     S
H42   C41    0.94954       .     S
C41   C43    1.39047       .     S
C43   C41    1.39047       .     S
C43   H44    0.94957       .     S
H44   C43    0.94957       .     S
O45   H46    0.84004       .     S
H46   O45    0.84004       .     S
O45   C132   1.25334       .     S
C132  O45    1.25334       .     S
O47   C132   1.26240       .     S
C132  O47    1.26240       .     S
O48   H49    0.84015       .     S
H49   O48    0.84015       .     S
O48   C133   1.21446       .     S
C133  O48    1.21446       .     S
O50   C133   1.30963       .     S
C133  O50    1.30963       .     S
O51   C101   1.22279       .     S
C101  O51    1.22279       .     S
O52   H53    0.84002       .     S
H53   O52    0.84002       .     S
O52   C101   1.32243   1_556     S
C101  O52    1.32243   1_554     S
O54   C123   1.21368   1_545     S
C123  O54    1.21368   1_565     S
O55   C123   1.31154       .     S
C123  O55    1.31154       .     S
C56   C65    1.38947       .     S
C65   C56    1.38947       .     S
C56   C68    1.49213       .     S
C68   C56    1.49213       .     S
C56   C69    1.40915       .     S
C69   C56    1.40915       .     S
N57   C73    1.36786       .     S
C73   N57    1.36786       .     S
N57   C82    1.37215       .     S
C82   N57    1.37215       .     S
N58   H59    0.87995       .     S
H59   N58    0.87995       .     S
N58   C64    1.36820       .     S
C64   N58    1.36820       .     S
N58   C67    1.37102   1_554     S
C67   N58    1.37102   1_556     S
N60   C66    1.36293       .     S
C66   N60    1.36293       .     S
N60   C69    1.36338   1_556     S
C69   N60    1.36338   1_554     S
N61   H62    0.88008       .     S
H62   N61    0.88008       .     S
N61   C65    1.37550       .     S
C65   N61    1.37550       .     S
N61   C70    1.36756       .     S
C70   N61    1.36756       .     S
C63   C66    1.40080       .     S
C66   C63    1.40080       .     S
C63   C67    1.39738       .     S
C67   C63    1.39738       .     S
C63   C85    1.48979       .     S
C85   C63    1.48979       .     S
C64   C79    1.43116   1_554     S
C79   C64    1.43116   1_556     S
C64   C81    1.39818       .     S
C81   C64    1.39818       .     S
C65   C95    1.42937       .     S
C95   C65    1.42937       .     S
C66   C71    1.44927       .     S
C71   C66    1.44927       .     S
C67   C77    1.43506       .     S
C77   C67    1.43506       .     S
C68   C97    1.39511       .     S
C97   C68    1.39511       .     S
C68   C99    1.39711       .     S
C99   C68    1.39711       .     S
C69   C74    1.45083   1_554     S
C74   C69    1.45083   1_556     S
C70   C76    1.40423       .     S
C76   C70    1.40423       .     S
C70   C88    1.42409       .     S
C88   C70    1.42409       .     S
C71   H72    0.95008       .     S
H72   C71    0.95008       .     S
C71   C74    1.33601       .     S
C74   C71    1.33601       .     S
C73   C76    1.40327       .     S
C76   C73    1.40327       .     S
C73   C113   1.44696       .     S
C113  C73    1.44696       .     S
C74   H75    0.94984       .     S
H75   C74    0.94984       .     S
C76   C84    1.49675       .     S
C84   C76    1.49675       .     S
C77   H78    0.94999       .     S
H78   C77    0.94999       .     S
C77   C79    1.35705       .     S
C79   C77    1.35705       .     S
C79   H80    0.95004       .     S
H80   C79    0.95004       .     S
C81   C82    1.39731       .     S
C82   C81    1.39731       .     S
C81   C90    1.49691       .     S
C90   C81    1.49691       .     S
C82   C86    1.45338       .     S
C86   C82    1.45338       .     S
C83   C93    1.39322       .     S
C93   C83    1.39322       .     S
C83   C101   1.49261       .     S
C101  C83    1.49261       .     S
C83   C104   1.39076       .     S
C104  C83    1.39076       .     S
C84   C107   1.39083       .     S
C107  C84    1.39083       .     S
C84   C115   1.40007       .     S
C115  C84    1.40007       .     S
C85   C91    1.38918       .     S
C91   C85    1.38918       .     S
C85   C126   1.38594       .     S
C126  C85    1.38594       .     S
C86   H87    0.94982       .     S
H87   C86    0.94982       .     S
C86   C113   1.34158       .     S
C113  C86    1.34158       .     S
C88   H89    0.94998       .     S
H89   C88    0.94998       .     S
C88   C95    1.35429       .     S
C95   C88    1.35429       .     S
C90   C109   1.38800       .     S
C109  C90    1.38800       .     S
C90   C130   1.37446       .     S
C130  C90    1.37446       .     S
C91   H92    0.95005       .     S
H92   C91    0.95005       .     S
C91   C111   1.39058       .     S
C111  C91    1.39058       .     S
C93   H94    0.94996   1_554     S
H94   C93    0.94996   1_556     S
C93   C97    1.38167       .     S
C97   C93    1.38167       .     S
C95   H96    0.94994       .     S
H96   C95    0.94994       .     S
C97   H98    0.94995   1_554     S
H98   C97    0.94995   1_556     S
C99   H100   0.95003       .     S
H100  C99    0.95003       .     S
C99   C104   1.38620       .     S
C104  C99    1.38620       .     S
C102  C111   1.37850       .     S
C111  C102   1.37850       .     S
C102  C128   1.38330       .     S
C128  C102   1.38330       .     S
C102  C132   1.49143       .     S
C132  C102   1.49143       .     S
C103  C119   1.38323       .     S
C119  C103   1.38323       .     S
C103  C121   1.37575       .     S
C121  C103   1.37575       .     S
C103  C123   1.49367       .     S
C123  C103   1.49367       .     S
C104  H105   0.94998       .     S
H105  C104   0.94998       .     S
C106  C117   1.38006   1_655     S
C117  C106   1.38006   1_455     S
C106  C124   1.38234       .     S
C124  C106   1.38234       .     S
C106  C133   1.50218       .     S
C133  C106   1.50218       .     S
C107  H108   0.95010       .     S
H108  C107   0.95010       .     S
C107  C117   1.37908       .     S
C117  C107   1.37908       .     S
C109  H110   0.95008       .     S
H110  C109   0.95008       .     S
C109  C119   1.38133       .     S
C119  C109   1.38133       .     S
C111  H112   0.94975       .     S
H112  C111   0.94975       .     S
C113  H114   0.95006       .     S
H114  C113   0.95006       .     S
C115  H116   0.95001       .     S
H116  C115   0.95001       .     S
C115  C124   1.38797   1_455     S
C124  C115   1.38797   1_655     S
C117  H118   0.95009       .     S
H118  C117   0.95009       .     S
C119  H120   0.94983   1_565     S
H120  C119   0.94983   1_545     S
C121  H122   0.94993       .     S
H122  C121   0.94993       .     S
C121  C130   1.38371       .     S
C130  C121   1.38371       .     S
C124  H125   0.95041       .     S
H125  C124   0.95041       .     S
C126  H127   0.95008       .     S
H127  C126   0.95008       .     S
C126  C128   1.39760       .     S
C128  C126   1.39760       .     S
C128  H129   0.95061       .     S
H129  C128   0.95061       .     S
C130  H131   0.94989       .     S
H131  C130   0.94989       .     S
N134  H135   0.91039       .     S
H135  N134   0.91039       .     S
N134  H136   0.90967       .     S
H136  N134   0.90967       .     S
N134  C137   1.49792       .     S
C137  N134   1.49792       .     S
N134  C141   1.46935       .     S
C141  N134   1.46935       .     S
C137  H138   0.97993   1_545     S
H138  C137   0.97993   1_565     S
C137  H139   0.97942       .     S
H139  C137   0.97942       .     S
C137  H140   0.98064   1_545     S
H140  C137   0.98064   1_565     S
C141  H142   0.97965       .     S
H142  C141   0.97965       .     S
C141  H143   0.98070       .     S
H143  C141   0.98070       .     S
C141  H144   0.97982       .     S
H144  C141   0.97982       .     S
O47   H1     1.68521       .     S
H1    O47    1.68521       .     S
O55   H5     1.75505   1_565     S
H5    O55    1.75505   1_545     S
N8    H7     2.39369       .     S
H7    N8     2.39369       .     S
O50   H46    1.79741       .     S
H46   O50    1.79741       .     S
N57   H59    2.38878       .     S
H59   N57    2.38878       .     S
N60   H59    2.36521   1_556     S
H59   N60    2.36521   1_554     S
N57   H62    2.36614       .     S
H62   N57    2.36614       .     S
N60   H62    2.36057   1_556     S
H62   N60    2.36057   1_554     S
O4    H135   2.06404       .     S
H135  O4     2.06404       .     S
H1    O0     0.84035       .     S
O0    H1     0.84035       .     S
C40   O0     1.28950       .     S
O0    C40    1.28950       .     S
C40   O2     1.22441       .     S
O2    C40    1.22441       .     S
C37   O3     1.25183   1_545     S
O3    C37    1.25183   1_565     S
H5    O4     0.84006       .     S
O4    H5     0.84006       .     S
C37   O4     1.25355       .     S
O4    C37    1.25355       .     S
H7    N6     0.87989       .     S
N6    H7     0.87989       .     S
C11   N6     1.36110       .     S
N6    C11    1.36110       .     S
C12   N6     1.37981   1_455     S
N6    C12    1.37981   1_655     S
C9    N8     1.36677       .     S
N8    C9     1.36677       .     S
C10   N8     1.36362       .     S
N8    C10    1.36362       .     S
C18   C9     1.40850       .     S
C9    C18    1.40850       .     S
C23   C9     1.44179       .     S
C9    C23    1.44179       .     S
C17   C10    1.40233       .     S
C10   C17    1.40233       .     S
C34   C10    1.45013       .     S
C10   C34    1.45013       .     S
C17   C11    1.39915       .     S
C11   C17    1.39915       .     S
C21   C11    1.43532       .     S
C11   C21    1.43532       .     S
C14   C12    1.42722   1_655     S
C12   C14    1.42722   1_455     S
C18   C13    1.49585       .     S
C13   C18    1.49585       .     S
C19   C13    1.38419       .     S
C13   C19    1.38419       .     S
C29   C13    1.39906       .     S
C13   C29    1.39906       .     S
H15   C14    0.95001   1_455     S
C14   H15    0.95001   1_655     S
C21   C14    1.36820       .     S
C14   C21    1.36820       .     S
C17   C16    1.48842       .     S
C16   C17    1.48842       .     S
C32   C16    1.38232       .     S
C16   C32    1.38232       .     S
C41   C16    1.38689       .     S
C16   C41    1.38689       .     S
H20   C19    0.95002       .     S
C19   H20    0.95002       .     S
C25   C19    1.38248       .     S
C19   C25    1.38248       .     S
H22   C21    0.95001       .     S
C21   H22    0.95001       .     S
H24   C23    0.94999       .     S
C23   H24    0.94999       .     S
C34   C23    1.34718       .     S
C23   C34    1.34718       .     S
H26   C25    0.94987       .     S
C25   H26    0.94987       .     S
C31   C25    1.38216       .     S
C25   C31    1.38216       .     S
H28   C27    0.95000       .     S
C27   H28    0.95000       .     S
C29   C27    1.38342       .     S
C27   C29    1.38342       .     S
C31   C27    1.39437       .     S
C27   C31    1.39437       .     S
H30   C29    0.94992   1_455     S
C29   H30    0.94992   1_655     S
C37   C31    1.50052       .     S
C31   C37    1.50052       .     S
H33   C32    0.94973       .     S
C32   H33    0.94973       .     S
C38   C32    1.38913       .     S
C32   C38    1.38913       .     S
H35   C34    0.95007       .     S
C34   H35    0.95007       .     S
C38   C36    1.35744       .     S
C36   C38    1.35744       .     S
C40   C36    1.48370       .     S
C36   C40    1.48370       .     S
C43   C36    1.36706       .     S
C36   C43    1.36706       .     S
H39   C38    0.94947       .     S
C38   H39    0.94947       .     S
H42   C41    0.94954       .     S
C41   H42    0.94954       .     S
C43   C41    1.39047       .     S
C41   C43    1.39047       .     S
H44   C43    0.94957       .     S
C43   H44    0.94957       .     S
H46   O45    0.84004       .     S
O45   H46    0.84004       .     S
C132  O45    1.25334       .     S
O45   C132   1.25334       .     S
C132  O47    1.26240       .     S
O47   C132   1.26240       .     S
H49   O48    0.84015       .     S
O48   H49    0.84015       .     S
C133  O48    1.21446       .     S
O48   C133   1.21446       .     S
C133  O50    1.30963       .     S
O50   C133   1.30963       .     S
C101  O51    1.22279       .     S
O51   C101   1.22279       .     S
H53   O52    0.84002       .     S
O52   H53    0.84002       .     S
C101  O52    1.32243   1_554     S
O52   C101   1.32243   1_556     S
C123  O54    1.21368   1_565     S
O54   C123   1.21368   1_545     S
C123  O55    1.31154       .     S
O55   C123   1.31154       .     S
C65   C56    1.38947       .     S
C56   C65    1.38947       .     S
C68   C56    1.49213       .     S
C56   C68    1.49213       .     S
C69   C56    1.40915       .     S
C56   C69    1.40915       .     S
C73   N57    1.36786       .     S
N57   C73    1.36786       .     S
C82   N57    1.37215       .     S
N57   C82    1.37215       .     S
H59   N58    0.87995       .     S
N58   H59    0.87995       .     S
C64   N58    1.36820       .     S
N58   C64    1.36820       .     S
C67   N58    1.37102   1_556     S
N58   C67    1.37102   1_554     S
C66   N60    1.36293       .     S
N60   C66    1.36293       .     S
C69   N60    1.36338   1_554     S
N60   C69    1.36338   1_556     S
H62   N61    0.88008       .     S
N61   H62    0.88008       .     S
C65   N61    1.37550       .     S
N61   C65    1.37550       .     S
C70   N61    1.36756       .     S
N61   C70    1.36756       .     S
C66   C63    1.40080       .     S
C63   C66    1.40080       .     S
C67   C63    1.39738       .     S
C63   C67    1.39738       .     S
C85   C63    1.48979       .     S
C63   C85    1.48979       .     S
C79   C64    1.43116   1_556     S
C64   C79    1.43116   1_554     S
C81   C64    1.39818       .     S
C64   C81    1.39818       .     S
C95   C65    1.42937       .     S
C65   C95    1.42937       .     S
C71   C66    1.44927       .     S
C66   C71    1.44927       .     S
C77   C67    1.43506       .     S
C67   C77    1.43506       .     S
C97   C68    1.39511       .     S
C68   C97    1.39511       .     S
C99   C68    1.39711       .     S
C68   C99    1.39711       .     S
C74   C69    1.45083   1_556     S
C69   C74    1.45083   1_554     S
C76   C70    1.40423       .     S
C70   C76    1.40423       .     S
C88   C70    1.42409       .     S
C70   C88    1.42409       .     S
H72   C71    0.95008       .     S
C71   H72    0.95008       .     S
C74   C71    1.33601       .     S
C71   C74    1.33601       .     S
C76   C73    1.40327       .     S
C73   C76    1.40327       .     S
C113  C73    1.44696       .     S
C73   C113   1.44696       .     S
H75   C74    0.94984       .     S
C74   H75    0.94984       .     S
C84   C76    1.49675       .     S
C76   C84    1.49675       .     S
H78   C77    0.94999       .     S
C77   H78    0.94999       .     S
C79   C77    1.35705       .     S
C77   C79    1.35705       .     S
H80   C79    0.95004       .     S
C79   H80    0.95004       .     S
C82   C81    1.39731       .     S
C81   C82    1.39731       .     S
C90   C81    1.49691       .     S
C81   C90    1.49691       .     S
C86   C82    1.45338       .     S
C82   C86    1.45338       .     S
C93   C83    1.39322       .     S
C83   C93    1.39322       .     S
C101  C83    1.49261       .     S
C83   C101   1.49261       .     S
C104  C83    1.39076       .     S
C83   C104   1.39076       .     S
C107  C84    1.39083       .     S
C84   C107   1.39083       .     S
C115  C84    1.40007       .     S
C84   C115   1.40007       .     S
C91   C85    1.38918       .     S
C85   C91    1.38918       .     S
C126  C85    1.38594       .     S
C85   C126   1.38594       .     S
H87   C86    0.94982       .     S
C86   H87    0.94982       .     S
C113  C86    1.34158       .     S
C86   C113   1.34158       .     S
H89   C88    0.94998       .     S
C88   H89    0.94998       .     S
C95   C88    1.35429       .     S
C88   C95    1.35429       .     S
C109  C90    1.38800       .     S
C90   C109   1.38800       .     S
C130  C90    1.37446       .     S
C90   C130   1.37446       .     S
H92   C91    0.95005       .     S
C91   H92    0.95005       .     S
C111  C91    1.39058       .     S
C91   C111   1.39058       .     S
H94   C93    0.94996   1_556     S
C93   H94    0.94996   1_554     S
C97   C93    1.38167       .     S
C93   C97    1.38167       .     S
H96   C95    0.94994       .     S
C95   H96    0.94994       .     S
H98   C97    0.94995   1_556     S
C97   H98    0.94995   1_554     S
H100  C99    0.95003       .     S
C99   H100   0.95003       .     S
C104  C99    1.38620       .     S
C99   C104   1.38620       .     S
C111  C102   1.37850       .     S
C102  C111   1.37850       .     S
C128  C102   1.38330       .     S
C102  C128   1.38330       .     S
C132  C102   1.49143       .     S
C102  C132   1.49143       .     S
C119  C103   1.38323       .     S
C103  C119   1.38323       .     S
C121  C103   1.37575       .     S
C103  C121   1.37575       .     S
C123  C103   1.49367       .     S
C103  C123   1.49367       .     S
H105  C104   0.94998       .     S
C104  H105   0.94998       .     S
C117  C106   1.38006   1_455     S
C106  C117   1.38006   1_655     S
C124  C106   1.38234       .     S
C106  C124   1.38234       .     S
C133  C106   1.50218       .     S
C106  C133   1.50218       .     S
H108  C107   0.95010       .     S
C107  H108   0.95010       .     S
C117  C107   1.37908       .     S
C107  C117   1.37908       .     S
H110  C109   0.95008       .     S
C109  H110   0.95008       .     S
C119  C109   1.38133       .     S
C109  C119   1.38133       .     S
H112  C111   0.94975       .     S
C111  H112   0.94975       .     S
H114  C113   0.95006       .     S
C113  H114   0.95006       .     S
H116  C115   0.95001       .     S
C115  H116   0.95001       .     S
C124  C115   1.38797   1_655     S
C115  C124   1.38797   1_455     S
H118  C117   0.95009       .     S
C117  H118   0.95009       .     S
H120  C119   0.94983   1_545     S
C119  H120   0.94983   1_565     S
H122  C121   0.94993       .     S
C121  H122   0.94993       .     S
C130  C121   1.38371       .     S
C121  C130   1.38371       .     S
H125  C124   0.95041       .     S
C124  H125   0.95041       .     S
H127  C126   0.95008       .     S
C126  H127   0.95008       .     S
C128  C126   1.39760       .     S
C126  C128   1.39760       .     S
H129  C128   0.95061       .     S
C128  H129   0.95061       .     S
H131  C130   0.94989       .     S
C130  H131   0.94989       .     S
H135  N134   0.91039       .     S
N134  H135   0.91039       .     S
H136  N134   0.90967       .     S
N134  H136   0.90967       .     S
C137  N134   1.49792       .     S
N134  C137   1.49792       .     S
C141  N134   1.46935       .     S
N134  C141   1.46935       .     S
H138  C137   0.97993   1_565     S
C137  H138   0.97993   1_545     S
H139  C137   0.97942       .     S
C137  H139   0.97942       .     S
H140  C137   0.98064   1_565     S
C137  H140   0.98064   1_545     S
H142  C141   0.97965       .     S
C141  H142   0.97965       .     S
H143  C141   0.98070       .     S
C141  H143   0.98070       .     S
H144  C141   0.97982       .     S
C141  H144   0.97982       .     S
