data_I
_chemical_name_common  '/data/user2/wty/HOF/MOFDiff/mofdiff/data/test/253-hof-fju-46'
_cell_length_a 12.45900
_cell_length_b 12.45900
_cell_length_c 11.82060
_cell_angle_alpha 90.00000
_cell_angle_beta  90.00000
_cell_angle_gamma 90.00000
_space_group_name_H-M_alt      'P 1'


loop_
_space_group_symop_operation_xyz
  'x, y, z' 

loop_
_atom_site_label
_atom_site_fract_x
_atom_site_fract_y
_atom_site_fract_z
_atom_site_type_symbol
N0      0.1838   0.9166   0.4068     N
Si1       0.75     0.25      0.0    Si
C2      0.8403   0.1685   0.0932     C
C3      0.9752   0.0441   0.2356     C
C4       0.045   0.9813   0.3121     C
N5      0.0959   0.8688   0.4481     N
H6     0.09446  0.82174  0.50127     H
C7      0.8025   0.1239   0.1929     C
H8     0.73133  0.13496  0.21356     H
C9      0.0141   0.0879   0.1355     C
H10    0.08525  0.07676  0.11477     H
C11     0.8685    0.063   0.2627     C
H12    0.84051   0.0343  0.32911     H
C13     0.9475   0.1482   0.0664     C
H14    0.97524  0.17618  0.99959     H
C15     0.0115   0.9067   0.3927     C
H16    0.94071  0.88655  0.40564     H
C17     0.1538   0.9841   0.3243     C
H18    0.20022  0.02652  0.28188     H
C19     0.6597   0.3315   0.0932     C
C20     0.5248   0.4559   0.2356     C
C21      0.455   0.5187   0.3121     C
N22     0.4041   0.6312   0.4481     N
H23    0.40554  0.67826  0.50127     H
N24     0.3162   0.5834   0.4068     N
C25     0.6975   0.3761   0.1929     C
H26    0.76867  0.36504  0.21356     H
C27     0.4859   0.4121   0.1355     C
H28    0.41476  0.42324  0.11477     H
C29     0.6315    0.437   0.2627     C
H30     0.6595   0.4657  0.32911     H
C31     0.5525   0.3518   0.0664     C
H32    0.52476  0.32382  0.99959     H
C33     0.4885   0.5933   0.3927     C
H34    0.55929  0.61345  0.40564     H
C35     0.3462   0.5159   0.3243     C
H36    0.29978  0.47348  0.28188     H
C37     0.6685   0.1597   0.9068     C
C38     0.5441   0.0248   0.7644     C
C39     0.4813    0.955   0.6879     C
N40     0.3688   0.9041   0.5519     N
H41    0.32174  0.90554  0.49873     H
N42     0.4166   0.8162   0.5932     N
C43     0.6239   0.1975   0.8071     C
H44    0.63496  0.26866  0.78644     H
C45     0.5879   0.9859   0.8645     C
H46    0.57676  0.91475  0.88523     H
C47      0.563   0.1315   0.7373     C
H48     0.5343   0.1595  0.67089     H
C49     0.6482   0.0525   0.9336     C
H50    0.67618  0.02476  0.00041     H
C51     0.4067   0.9885   0.6073     C
H52    0.38656  0.05929  0.59436     H
C53     0.4841   0.8462   0.6757     C
H54    0.52652  0.79978  0.71812     H
C55     0.8315   0.3403   0.9068     C
C56     0.9559   0.4752   0.7644     C
C57     0.0187    0.545   0.6879     C
N58     0.1312   0.5959   0.5519     N
H59    0.17826  0.59446  0.49873     H
N60     0.0834   0.6838   0.5932     N
C61     0.8761   0.3025   0.8071     C
H62    0.86504  0.23134  0.78644     H
C63     0.9121   0.5141   0.8645     C
H64    0.92324  0.58525  0.88523     H
C65      0.937   0.3685   0.7373     C
H66     0.9657  0.34051  0.67089     H
C67     0.8518   0.4475   0.9336     C
H68    0.82382  0.47524  0.00041     H
C69     0.0933   0.5115   0.6073     C
H70    0.11345  0.44071  0.59436     H
C71     0.0159   0.6538   0.6757     C
H72    0.97348  0.70022  0.71812     H
loop_
_geom_bond_atom_site_label_1
_geom_bond_atom_site_label_2
_geom_bond_distance
_geom_bond_site_symmetry_2
_ccdc_geom_bond_type
H6    N60    2.03799       .     S
N60   H6     2.03799       .     S
H23   N42    2.03799       .     S
N42   H23    2.03799       .     S
H41   N0     2.03799       .     S
N0    H41    2.03799       .     S
H59   N24    2.03799       .     S
N24   H59    2.03799       .     S
N0    N5     1.33878       .     S
N5    N0     1.33878       .     S
N0    C17    1.34088       .     S
C17   N0     1.34088       .     S
Si1   C2     1.87363       .     S
C2    Si1    1.87363       .     S
Si1   C19    1.87363       .     S
C19   Si1    1.87363       .     S
Si1   C37    1.87363   1_554     S
C37   Si1    1.87363   1_556     S
Si1   C55    1.87363   1_554     S
C55   Si1    1.87363   1_556     S
C2    C7     1.38545       .     S
C7    C2     1.38545       .     S
C2    C13    1.39577       .     S
C13   C2     1.39577       .     S
C3    C4     1.47857   1_645     S
C4    C3     1.47857   1_465     S
C3    C9     1.39023   1_655     S
C9    C3     1.39023   1_455     S
C3    C11    1.38755       .     S
C11   C3     1.38755       .     S
C4    C15    1.39491       .     S
C15   C4     1.39491       .     S
C4    C17    1.36363       .     S
C17   C4     1.36363       .     S
N5    H6     0.85971       .     S
H6    N5     0.85971       .     S
N5    C15    1.32573       .     S
C15   N5     1.32573       .     S
C7    H8     0.92999       .     S
H8    C7     0.92999       .     S
C7    C11    1.39019       .     S
C11   C7     1.39019       .     S
C9    H10    0.93012       .     S
H10   C9     0.93012       .     S
C9    C13    1.38568   1_455     S
C13   C9     1.38568   1_655     S
C11   H12    0.93043       .     S
H12   C11    0.93043       .     S
C13   H14    0.92987   1_554     S
H14   C13    0.92987   1_556     S
C15   H16    0.92968   1_455     S
H16   C15    0.92968   1_655     S
C17   H18    0.93018   1_565     S
H18   C17    0.93018   1_545     S
C19   C25    1.38545       .     S
C25   C19    1.38545       .     S
C19   C31    1.39577       .     S
C31   C19    1.39577       .     S
C20   C21    1.47857       .     S
C21   C20    1.47857       .     S
C20   C27    1.39023       .     S
C27   C20    1.39023       .     S
C20   C29    1.38755       .     S
C29   C20    1.38755       .     S
C21   C33    1.39491       .     S
C33   C21    1.39491       .     S
C21   C35    1.36364       .     S
C35   C21    1.36364       .     S
N22   H23    0.85971       .     S
H23   N22    0.85971       .     S
N22   N24    1.33878       .     S
N24   N22    1.33878       .     S
N22   C33    1.32573       .     S
C33   N22    1.32573       .     S
N24   C35    1.34088       .     S
C35   N24    1.34088       .     S
C25   H26    0.92999       .     S
H26   C25    0.92999       .     S
C25   C29    1.39019       .     S
C29   C25    1.39019       .     S
C27   H28    0.93000       .     S
H28   C27    0.93000       .     S
C27   C31    1.38568       .     S
C31   C27    1.38568       .     S
C29   H30    0.93048       .     S
H30   C29    0.93048       .     S
C31   H32    0.92987   1_554     S
H32   C31    0.92987   1_556     S
C33   H34    0.92968       .     S
H34   C33    0.92968       .     S
C35   H36    0.93018       .     S
H36   C35    0.93018       .     S
C37   C43    1.38545       .     S
C43   C37    1.38545       .     S
C37   C49    1.39577       .     S
C49   C37    1.39577       .     S
C38   C39    1.47857   1_545     S
C39   C38    1.47857   1_565     S
C38   C45    1.39023   1_545     S
C45   C38    1.39023   1_565     S
C38   C47    1.38755       .     S
C47   C38    1.38755       .     S
C39   C51    1.39491       .     S
C51   C39    1.39491       .     S
C39   C53    1.36363       .     S
C53   C39    1.36363       .     S
N40   H41    0.85971       .     S
H41   N40    0.85971       .     S
N40   N42    1.33878       .     S
N42   N40    1.33878       .     S
N40   C51    1.32573       .     S
C51   N40    1.32573       .     S
N42   C53    1.34088       .     S
C53   N42    1.34088       .     S
C43   H44    0.92987       .     S
H44   C43    0.92987       .     S
C43   C47    1.39019       .     S
C47   C43    1.39019       .     S
C45   H46    0.93012       .     S
H46   C45    0.93012       .     S
C45   C49    1.38568   1_565     S
C49   C45    1.38568   1_545     S
C47   H48    0.93048       .     S
H48   C47    0.93048       .     S
C49   H50    0.92987   1_556     S
H50   C49    0.92987   1_554     S
C51   H52    0.92964   1_565     S
H52   C51    0.92964   1_545     S
C53   H54    0.93018       .     S
H54   C53    0.93018       .     S
C55   C61    1.38545       .     S
C61   C55    1.38545       .     S
C55   C67    1.39577       .     S
C67   C55    1.39577       .     S
C56   C57    1.47857   1_655     S
C57   C56    1.47857   1_455     S
C56   C63    1.39023       .     S
C63   C56    1.39023       .     S
C56   C65    1.38755       .     S
C65   C56    1.38755       .     S
C57   C69    1.39491       .     S
C69   C57    1.39491       .     S
C57   C71    1.36363       .     S
C71   C57    1.36363       .     S
N58   H59    0.85971       .     S
H59   N58    0.85971       .     S
N58   N60    1.33878       .     S
N60   N58    1.33878       .     S
N58   C69    1.32572       .     S
C69   N58    1.32572       .     S
N60   C71    1.34088       .     S
C71   N60    1.34088       .     S
C61   H62    0.92987       .     S
H62   C61    0.92987       .     S
C61   C65    1.39019       .     S
C65   C61    1.39019       .     S
C63   H64    0.93012       .     S
H64   C63    0.93012       .     S
C63   C67    1.38568       .     S
C67   C63    1.38568       .     S
C65   H66    0.93043       .     S
H66   C65    0.93043       .     S
C67   H68    0.92987   1_556     S
H68   C67    0.92987   1_554     S
C69   H70    0.92968       .     S
H70   C69    0.92968       .     S
C71   H72    0.93018   1_455     S
H72   C71    0.93018   1_655     S
N60   H6     2.03799       .     S
H6    N60    2.03799       .     S
N42   H23    2.03799       .     S
H23   N42    2.03799       .     S
N0    H41    2.03799       .     S
H41   N0     2.03799       .     S
N24   H59    2.03799       .     S
H59   N24    2.03799       .     S
N5    N0     1.33878       .     S
N0    N5     1.33878       .     S
C17   N0     1.34088       .     S
N0    C17    1.34088       .     S
C2    Si1    1.87363       .     S
Si1   C2     1.87363       .     S
C19   Si1    1.87363       .     S
Si1   C19    1.87363       .     S
C37   Si1    1.87363   1_556     S
Si1   C37    1.87363   1_554     S
C55   Si1    1.87363   1_556     S
Si1   C55    1.87363   1_554     S
C7    C2     1.38545       .     S
C2    C7     1.38545       .     S
C13   C2     1.39577       .     S
C2    C13    1.39577       .     S
C4    C3     1.47857   1_465     S
C3    C4     1.47857   1_645     S
C9    C3     1.39023   1_455     S
C3    C9     1.39023   1_655     S
C11   C3     1.38755       .     S
C3    C11    1.38755       .     S
C15   C4     1.39491       .     S
C4    C15    1.39491       .     S
C17   C4     1.36363       .     S
C4    C17    1.36363       .     S
H6    N5     0.85971       .     S
N5    H6     0.85971       .     S
C15   N5     1.32573       .     S
N5    C15    1.32573       .     S
H8    C7     0.92999       .     S
C7    H8     0.92999       .     S
C11   C7     1.39019       .     S
C7    C11    1.39019       .     S
H10   C9     0.93012       .     S
C9    H10    0.93012       .     S
C13   C9     1.38568   1_655     S
C9    C13    1.38568   1_455     S
H12   C11    0.93043       .     S
C11   H12    0.93043       .     S
H14   C13    0.92987   1_556     S
C13   H14    0.92987   1_554     S
H16   C15    0.92968   1_655     S
C15   H16    0.92968   1_455     S
H18   C17    0.93018   1_545     S
C17   H18    0.93018   1_565     S
C25   C19    1.38545       .     S
C19   C25    1.38545       .     S
C31   C19    1.39577       .     S
C19   C31    1.39577       .     S
C21   C20    1.47857       .     S
C20   C21    1.47857       .     S
C27   C20    1.39023       .     S
C20   C27    1.39023       .     S
C29   C20    1.38755       .     S
C20   C29    1.38755       .     S
C33   C21    1.39491       .     S
C21   C33    1.39491       .     S
C35   C21    1.36364       .     S
C21   C35    1.36364       .     S
H23   N22    0.85971       .     S
N22   H23    0.85971       .     S
N24   N22    1.33878       .     S
N22   N24    1.33878       .     S
C33   N22    1.32573       .     S
N22   C33    1.32573       .     S
C35   N24    1.34088       .     S
N24   C35    1.34088       .     S
H26   C25    0.92999       .     S
C25   H26    0.92999       .     S
C29   C25    1.39019       .     S
C25   C29    1.39019       .     S
H28   C27    0.93000       .     S
C27   H28    0.93000       .     S
C31   C27    1.38568       .     S
C27   C31    1.38568       .     S
H30   C29    0.93048       .     S
C29   H30    0.93048       .     S
H32   C31    0.92987   1_556     S
C31   H32    0.92987   1_554     S
H34   C33    0.92968       .     S
C33   H34    0.92968       .     S
H36   C35    0.93018       .     S
C35   H36    0.93018       .     S
C43   C37    1.38545       .     S
C37   C43    1.38545       .     S
C49   C37    1.39577       .     S
C37   C49    1.39577       .     S
C39   C38    1.47857   1_565     S
C38   C39    1.47857   1_545     S
C45   C38    1.39023   1_565     S
C38   C45    1.39023   1_545     S
C47   C38    1.38755       .     S
C38   C47    1.38755       .     S
C51   C39    1.39491       .     S
C39   C51    1.39491       .     S
C53   C39    1.36363       .     S
C39   C53    1.36363       .     S
H41   N40    0.85971       .     S
N40   H41    0.85971       .     S
N42   N40    1.33878       .     S
N40   N42    1.33878       .     S
C51   N40    1.32573       .     S
N40   C51    1.32573       .     S
C53   N42    1.34088       .     S
N42   C53    1.34088       .     S
H44   C43    0.92987       .     S
C43   H44    0.92987       .     S
C47   C43    1.39019       .     S
C43   C47    1.39019       .     S
H46   C45    0.93012       .     S
C45   H46    0.93012       .     S
C49   C45    1.38568   1_545     S
C45   C49    1.38568   1_565     S
H48   C47    0.93048       .     S
C47   H48    0.93048       .     S
H50   C49    0.92987   1_554     S
C49   H50    0.92987   1_556     S
H52   C51    0.92964   1_545     S
C51   H52    0.92964   1_565     S
H54   C53    0.93018       .     S
C53   H54    0.93018       .     S
C61   C55    1.38545       .     S
C55   C61    1.38545       .     S
C67   C55    1.39577       .     S
C55   C67    1.39577       .     S
C57   C56    1.47857   1_455     S
C56   C57    1.47857   1_655     S
C63   C56    1.39023       .     S
C56   C63    1.39023       .     S
C65   C56    1.38755       .     S
C56   C65    1.38755       .     S
C69   C57    1.39491       .     S
C57   C69    1.39491       .     S
C71   C57    1.36363       .     S
C57   C71    1.36363       .     S
H59   N58    0.85971       .     S
N58   H59    0.85971       .     S
N60   N58    1.33878       .     S
N58   N60    1.33878       .     S
C69   N58    1.32572       .     S
N58   C69    1.32572       .     S
C71   N60    1.34088       .     S
N60   C71    1.34088       .     S
H62   C61    0.92987       .     S
C61   H62    0.92987       .     S
C65   C61    1.39019       .     S
C61   C65    1.39019       .     S
H64   C63    0.93012       .     S
C63   H64    0.93012       .     S
C67   C63    1.38568       .     S
C63   C67    1.38568       .     S
H66   C65    0.93043       .     S
C65   H66    0.93043       .     S
H68   C67    0.92987   1_554     S
C67   H68    0.92987   1_556     S
H70   C69    0.92968       .     S
C69   H70    0.92968       .     S
H72   C71    0.93018   1_655     S
C71   H72    0.93018   1_455     S
