data_I
_chemical_name_common  '/data/user2/wty/HOF/MOFDiff/mofdiff/data/test/254-ck1222a'
_cell_length_a 26.98500
_cell_length_b 20.47990
_cell_length_c 10.12450
_cell_angle_alpha 90.00000
_cell_angle_beta  100.01600
_cell_angle_gamma 90.00000
_space_group_name_H-M_alt      'P 1'


loop_
_space_group_symop_operation_xyz
  'x, y, z' 

loop_
_atom_site_label
_atom_site_fract_x
_atom_site_fract_y
_atom_site_fract_z
_atom_site_type_symbol
C0      0.8222   0.4582    0.465     C
H1     0.80859  0.41549  0.47912     H
H2     0.82595  0.48309  0.54717     H
C3      0.7883   0.4947    0.348     C
H4     0.79525  0.47811  0.26333     H
H5     0.79699  0.54073  0.35293     H
C6      0.8126   0.5356    0.358     C
C7      0.7717    0.542     0.23     C
H8     0.77143  0.58635  0.19656     H
H9     0.77986  0.51306  0.16109     H
H10    0.71334  0.48688  0.25991     H
C11      0.719   0.5247   0.2591     C
C12     0.7324   0.4875     0.35     C
H13    0.71707  0.47848  0.27826     H
H14    0.72592  0.44717  0.39488     H
O15    0.70706  0.26795   0.7769     O
O16     0.6525  0.21692    0.386     O
O17    0.70042   0.6413   0.7272     O
O18     0.7108   0.5617   0.3707     O
N19     0.7192    0.206   0.6078     N
H20    0.74295  0.18504  0.65795     H
H21     0.7109  0.19587   0.5244     H
N22    0.72709   0.6742   0.5446     N
H23    0.74872  0.69982   0.5908     H
H24    0.72492  0.67213   0.4589     H
C25        0.5  0.37266     0.25     C
H26        0.5  0.32725     0.25     H
C27    0.53962  0.40516   0.3303     C
C28    0.54047  0.47436    0.327     C
C29        0.5   0.5061     0.25     C
H30        0.5  0.55151     0.25     H
C31    0.57911  0.36579   0.4153     C
C32    0.59714  0.30999   0.3634     C
H33      0.584  0.29785  0.27581     H
C34    0.63397  0.27169    0.437     C
C35    0.65397  0.28898   0.5706     C
C36    0.63402  0.34345   0.6223     C
H37    0.64561  0.35433  0.71146     H
C38    0.59797  0.38235   0.5488     C
H39    0.58622  0.41925  0.58714     H
C40    0.69549   0.2534   0.6586     C
C41    0.58278   0.5152   0.3974     C
C42    0.57309     0.56   0.4918     C
H43    0.54091  0.56409  0.51196     H
C44    0.65892   0.5968   0.5231     C
C45    0.66747   0.5534   0.4255     C
C46    0.62963   0.5117   0.3665     C
H47    0.63643  0.48083  0.30469     H
C48    0.69817   0.6393   0.6031     C
C49    0.61205   0.5987   0.5557     C
H50    0.60603  0.62689  0.62313     H
O51     0.7179   0.5438   0.4243     O
C52      0.648   0.2146   0.2407     C
H53    0.61282  0.21672  0.19907     H
H54    0.66531  0.25157  0.20971     H
C55     0.6699   0.1546    0.205     C
H56    0.65418  0.11809  0.24246     H
H57    0.70551  0.15415   0.2423     H
C58      0.624    0.188   0.2661     C
H59    0.62375  0.14081    0.275     H
H60    0.58945  0.20333  0.25287     H
C61     0.6468    0.206    0.154     C
H62     0.6822  0.19504  0.17665     H
H63    0.64485  0.25324  0.14659     H
C64     0.6626   0.1467    0.045     C
H65    0.68489   0.1124  0.02482     H
H66    0.67312  0.18699  0.00772     H
C67      0.627   0.1772    0.006     C
H68    0.64822  0.19119  0.94294     H
H69    0.59259  0.19065  0.97233     H
S70     0.6312    0.084    0.034     S
S71     0.5959   0.1268    0.957     S
C72     0.6088    0.053    0.876     C
H73    0.62883   0.0258  0.94441     H
H74    0.57683  0.03041  0.85041     H
H75    0.65499  0.01376  0.78045     H
C76      0.636    0.009    0.842     C
H77     0.6058  0.00659  0.88173     H
H78    0.65945  0.97721  0.88705     H
S79     0.6129    0.049    0.601     S
S80     0.6207    0.987    0.683     S
C81     0.6328    0.051    0.764     C
H82    0.65475  0.08904  0.77654     H
C83     0.6562   0.0685     0.87     C
H84    0.64377  0.10034  0.80174     H
H85     0.6927   0.0674  0.88464     H
H86    0.69352  0.53491  0.18183     H
loop_
_geom_bond_atom_site_label_1
_geom_bond_atom_site_label_2
_geom_bond_distance
_geom_bond_site_symmetry_2
_ccdc_geom_bond_type
H21   O16    1.96589       .     S
O16   H21    1.96589       .     S
H24   O18    2.43702       .     S
O18   H24    2.43702       .     S
C0    H1     0.96885       .     S
H1    C0     0.96885       .     S
C0    H2     0.96587       .     S
H2    C0     0.96587       .     S
C0    C3     1.55624       .     S
C3    C0     1.55624       .     S
C3    H4     0.97026       .     S
H4    C3     0.97026       .     S
C3    H5     0.97060       .     S
H5    C3     0.97060       .     S
C3    C6     1.05772       .     S
C6    C3     1.05772       .     S
C3    C7     1.54278       .     S
C7    C3     1.54278       .     S
C3    C12    1.51929       .     S
C12   C3     1.51929       .     S
H5    C6     0.42848       .     S
C6    H5     0.42848       .     S
H5    C7     1.31149       .     S
C7    H5     1.31149       .     S
C6    C7     1.55474       .     S
C7    C6     1.55474       .     S
C7    H8     0.96892       .     S
H8    C7     0.96892       .     S
C7    H9     0.96952       .     S
H9    C7     0.96952       .     S
C7    C11    1.54288       .     S
C11   C7     1.54288       .     S
H10   C11    0.78978       .     S
C11   H10    0.78978       .     S
H10   C12    0.96616       .     S
C12   H10    0.96616       .     S
H10   H13    0.26026       .     S
H13   H10    0.26026       .     S
C11   C12    1.20100       .     S
C12   C11    1.20100       .     S
C11   H13    0.96947       .     S
H13   C11    0.96947       .     S
C11   O18    1.40953       .     S
O18   C11    1.40953       .     S
C11   H86    0.97026       .     S
H86   C11    0.97026       .     S
C12   H13    0.79265       .     S
H13   C12    0.79265       .     S
C12   H14    0.97308       .     S
H14   C12    0.97308       .     S
C12   O51    1.46657       .     S
O51   C12    1.46657       .     S
O15   C40    1.22096       .     S
C40   O15    1.22096       .     S
O16   C34    1.36552       .     S
C34   O16    1.36552       .     S
O16   C52    1.45567       .     S
C52   O16    1.45567       .     S
O16   C58    1.44608       .     S
C58   O16    1.44608       .     S
O17   C48    1.24800       .     S
C48   O17    1.24800       .     S
O18   C45    1.38908       .     S
C45   O18    1.38908       .     S
O18   O51    0.65531       .     S
O51   O18    0.65531       .     S
N19   H20    0.86001       .     S
H20   N19    0.86001       .     S
N19   H21    0.86047       .     S
H21   N19    0.86047       .     S
N19   C40    1.31556       .     S
C40   N19    1.31556       .     S
N22   H23    0.86013       .     S
H23   N22    0.86013       .     S
N22   H24    0.86047       .     S
H24   N22    0.86047       .     S
N22   C48    1.27729       .     S
C48   N22    1.27729       .     S
C25   H26    0.92999       .     S
H26   C25    0.92999       .     S
C25   C27    1.39453       .     S
C27   C25    1.39453       .     S
C27   C28    1.41788       .     S
C28   C27    1.41788       .     S
C27   C31    1.48570       .     S
C31   C27    1.48570       .     S
C28   C29    1.38809       .     S
C29   C28    1.38809       .     S
C28   C41    1.49268       .     S
C41   C28    1.49268       .     S
C29   H30    0.92999       .     S
H30   C29    0.92999       .     S
C31   C32    1.38120       .     S
C32   C31    1.38120       .     S
C31   C38    1.40058       .     S
C38   C31    1.40058       .     S
C32   H33    0.92983       .     S
H33   C32    0.92983       .     S
C32   C34    1.37865       .     S
C34   C32    1.37865       .     S
C34   C35    1.41150       .     S
C35   C34    1.41150       .     S
C35   C36    1.38067       .     S
C36   C35    1.38067       .     S
C35   C40    1.49428       .     S
C40   C35    1.49428       .     S
C36   H37    0.92958       .     S
H37   C36    0.92958       .     S
C36   C38    1.37222       .     S
C38   C36    1.37222       .     S
C38   H39    0.93012       .     S
H39   C38    0.93012       .     S
C41   C42    1.38224       .     S
C42   C41    1.38224       .     S
C41   C46    1.35607       .     S
C46   C41    1.35607       .     S
C42   H43    0.92974       .     S
H43   C42    0.92974       .     S
C42   C49    1.38399       .     S
C49   C42    1.38399       .     S
C44   C45    1.37804       .     S
C45   C44    1.37804       .     S
C44   C48    1.49567       .     S
C48   C44    1.49567       .     S
C44   C49    1.36211       .     S
C49   C44    1.36211       .     S
C45   C46    1.38443       .     S
C46   C45    1.38443       .     S
C45   O51    1.37713       .     S
O51   C45    1.37713       .     S
C46   H47    0.93002       .     S
H47   C46    0.93002       .     S
C49   H50    0.92970       .     S
H50   C49    0.92970       .     S
C52   H53    0.97035       .     S
H53   C52    0.97035       .     S
C52   H54    0.96999       .     S
H54   C52    0.96999       .     S
C52   C55    1.43671       .     S
C55   C52    1.43671       .     S
C52   C58    0.91666       .     S
C58   C52    0.91666       .     S
C52   C61    0.89034       .     S
C61   C52    0.89034       .     S
C52   H62    1.28097       .     S
H62   C52    1.28097       .     S
C52   H63    1.23010       .     S
H63   C52    1.23010       .     S
H53   C58    0.90902       .     S
C58   H53    0.90902       .     S
H53   C61    1.11479       .     S
C61   H53    1.11479       .     S
H54   C61    1.15785       .     S
C61   H54    1.15785       .     S
C55   H56    0.96894       .     S
H56   C55    0.96894       .     S
C55   H57    0.96947       .     S
H57   C55    0.96947       .     S
C55   C58    1.62827       .     S
C58   C55    1.62827       .     S
C55   C61    1.28504       .     S
C61   C55    1.28504       .     S
C55   H62    0.95479       .     S
H62   C55    0.95479       .     S
C55   C64    1.60565       .     S
C64   C55    1.60565       .     S
C58   H59    0.97077       .     S
H59   C58    0.97077       .     S
C58   H60    0.97073       .     S
H60   C58    0.97073       .     S
C58   C61    1.43020       .     S
C61   C58    1.43020       .     S
C61   H62    0.96918       .     S
H62   C61    0.96918       .     S
C61   H63    0.97109       .     S
H63   C61    0.97109       .     S
C61   C64    1.74305       .     S
C64   C61    1.74305       .     S
C61   C67    1.61250       .     S
C67   C61    1.61250       .     S
C64   H65    0.96940       .     S
H65   C64    0.96940       .     S
C64   H66    0.97014       .     S
H66   C64    0.97014       .     S
C64   C67    1.15629       .     S
C67   C64    1.15629       .     S
C64   S70    1.53181       .     S
S70   C64    1.53181       .     S
C64   S71    1.90833   1_554     S
S71   C64    1.90833   1_556     S
H66   C67    1.25772       .     S
C67   H66    1.25772       .     S
C67   H68    0.97200   1_554     S
H68   C67    0.97200   1_556     S
C67   H69    0.97169   1_554     S
H69   C67    0.97169   1_556     S
C67   S70    1.93010       .     S
S70   C67    1.93010       .     S
C67   S71    1.36785   1_554     S
S71   C67    1.36785   1_556     S
H69   S71    1.32167       .     S
S71   H69    1.32167       .     S
S70   S71    1.42308   1_554     S
S71   S70    1.42308   1_556     S
S70   C72    1.72946   1_554     S
C72   S70    1.72946   1_556     S
S70   H73    1.49243   1_554     S
H73   S70    1.49243   1_556     S
S70   C83    1.92419   1_554     S
C83   S70    1.92419   1_556     S
S71   C72    1.78253       .     S
C72   S71    1.78253       .     S
C72   H73    0.97568       .     S
H73   C72    0.97568       .     S
C72   H74    0.97349       .     S
H74   C72    0.97349       .     S
C72   C76    1.24785       .     S
C76   C72    1.24785       .     S
C72   H77    0.95653       .     S
H77   C72    0.95653       .     S
C72   C81    1.40086       .     S
C81   C72    1.40086       .     S
C72   C83    1.32949       .     S
C83   C72    1.32949       .     S
H73   C76    1.14046       .     S
C76   H73    1.14046       .     S
H75   C76    0.87836       .     S
C76   H75    0.87836       .     S
H75   S80    1.34627   1_545     S
S80   H75    1.34627   1_565     S
H75   C81    0.96606       .     S
C81   H75    0.96606       .     S
C76   H77    0.97077       .     S
H77   C76    0.97077       .     S
C76   H78    0.96537   1_545     S
H78   C76    0.96537   1_565     S
C76   S80    1.65339   1_545     S
S80   C76    1.65339   1_565     S
C76   C81    1.16071       .     S
C81   C76    1.16071       .     S
C76   C83    1.34485       .     S
C83   C76    1.34485       .     S
S79   S80    1.51164   1_545     S
S80   S79    1.51164   1_565     S
S79   C81    1.64476       .     S
C81   S79    1.64476       .     S
S80   C81    1.55048   1_565     S
C81   S80    1.55048   1_545     S
C81   H82    0.97352       .     S
H82   C81    0.97352       .     S
C81   C83    1.20134       .     S
C83   C81    1.20134       .     S
C81   H84    1.10243       .     S
H84   C81    1.10243       .     S
H82   C83    1.03003       .     S
C83   H82    1.03003       .     S
H82   H84    0.48243       .     S
H84   H82    0.48243       .     S
C83   H84    0.96680       .     S
H84   C83    0.96680       .     S
C83   H85    0.97048       .     S
H85   C83    0.97048       .     S
O16   H21    1.96589       .     S
H21   O16    1.96589       .     S
O18   H24    2.43702       .     S
H24   O18    2.43702       .     S
H1    C0     0.96885       .     S
C0    H1     0.96885       .     S
H2    C0     0.96587       .     S
C0    H2     0.96587       .     S
C3    C0     1.55624       .     S
C0    C3     1.55624       .     S
H4    C3     0.97026       .     S
C3    H4     0.97026       .     S
H5    C3     0.97060       .     S
C3    H5     0.97060       .     S
C6    C3     1.05772       .     S
C3    C6     1.05772       .     S
C7    C3     1.54278       .     S
C3    C7     1.54278       .     S
C12   C3     1.51929       .     S
C3    C12    1.51929       .     S
C6    H5     0.42848       .     S
H5    C6     0.42848       .     S
C7    H5     1.31149       .     S
H5    C7     1.31149       .     S
C7    C6     1.55474       .     S
C6    C7     1.55474       .     S
H8    C7     0.96892       .     S
C7    H8     0.96892       .     S
H9    C7     0.96952       .     S
C7    H9     0.96952       .     S
C11   C7     1.54288       .     S
C7    C11    1.54288       .     S
C11   H10    0.78978       .     S
H10   C11    0.78978       .     S
C12   H10    0.96616       .     S
H10   C12    0.96616       .     S
H13   H10    0.26026       .     S
H10   H13    0.26026       .     S
C12   C11    1.20100       .     S
C11   C12    1.20100       .     S
H13   C11    0.96947       .     S
C11   H13    0.96947       .     S
O18   C11    1.40953       .     S
C11   O18    1.40953       .     S
H86   C11    0.97026       .     S
C11   H86    0.97026       .     S
H13   C12    0.79265       .     S
C12   H13    0.79265       .     S
H14   C12    0.97308       .     S
C12   H14    0.97308       .     S
O51   C12    1.46657       .     S
C12   O51    1.46657       .     S
C40   O15    1.22096       .     S
O15   C40    1.22096       .     S
C34   O16    1.36552       .     S
O16   C34    1.36552       .     S
C52   O16    1.45567       .     S
O16   C52    1.45567       .     S
C58   O16    1.44608       .     S
O16   C58    1.44608       .     S
C48   O17    1.24800       .     S
O17   C48    1.24800       .     S
C45   O18    1.38908       .     S
O18   C45    1.38908       .     S
O51   O18    0.65531       .     S
O18   O51    0.65531       .     S
H20   N19    0.86001       .     S
N19   H20    0.86001       .     S
H21   N19    0.86047       .     S
N19   H21    0.86047       .     S
C40   N19    1.31556       .     S
N19   C40    1.31556       .     S
H23   N22    0.86013       .     S
N22   H23    0.86013       .     S
H24   N22    0.86047       .     S
N22   H24    0.86047       .     S
C48   N22    1.27729       .     S
N22   C48    1.27729       .     S
H26   C25    0.92999       .     S
C25   H26    0.92999       .     S
C27   C25    1.39453       .     S
C25   C27    1.39453       .     S
C28   C27    1.41788       .     S
C27   C28    1.41788       .     S
C31   C27    1.48570       .     S
C27   C31    1.48570       .     S
C29   C28    1.38809       .     S
C28   C29    1.38809       .     S
C41   C28    1.49268       .     S
C28   C41    1.49268       .     S
H30   C29    0.92999       .     S
C29   H30    0.92999       .     S
C32   C31    1.38120       .     S
C31   C32    1.38120       .     S
C38   C31    1.40058       .     S
C31   C38    1.40058       .     S
H33   C32    0.92983       .     S
C32   H33    0.92983       .     S
C34   C32    1.37865       .     S
C32   C34    1.37865       .     S
C35   C34    1.41150       .     S
C34   C35    1.41150       .     S
C36   C35    1.38067       .     S
C35   C36    1.38067       .     S
C40   C35    1.49428       .     S
C35   C40    1.49428       .     S
H37   C36    0.92958       .     S
C36   H37    0.92958       .     S
C38   C36    1.37222       .     S
C36   C38    1.37222       .     S
H39   C38    0.93012       .     S
C38   H39    0.93012       .     S
C42   C41    1.38224       .     S
C41   C42    1.38224       .     S
C46   C41    1.35607       .     S
C41   C46    1.35607       .     S
H43   C42    0.92974       .     S
C42   H43    0.92974       .     S
C49   C42    1.38399       .     S
C42   C49    1.38399       .     S
C45   C44    1.37804       .     S
C44   C45    1.37804       .     S
C48   C44    1.49567       .     S
C44   C48    1.49567       .     S
C49   C44    1.36211       .     S
C44   C49    1.36211       .     S
C46   C45    1.38443       .     S
C45   C46    1.38443       .     S
O51   C45    1.37713       .     S
C45   O51    1.37713       .     S
H47   C46    0.93002       .     S
C46   H47    0.93002       .     S
H50   C49    0.92970       .     S
C49   H50    0.92970       .     S
H53   C52    0.97035       .     S
C52   H53    0.97035       .     S
H54   C52    0.96999       .     S
C52   H54    0.96999       .     S
C55   C52    1.43671       .     S
C52   C55    1.43671       .     S
C58   C52    0.91666       .     S
C52   C58    0.91666       .     S
C61   C52    0.89034       .     S
C52   C61    0.89034       .     S
H62   C52    1.28097       .     S
C52   H62    1.28097       .     S
H63   C52    1.23010       .     S
C52   H63    1.23010       .     S
C58   H53    0.90902       .     S
H53   C58    0.90902       .     S
C61   H53    1.11479       .     S
H53   C61    1.11479       .     S
C61   H54    1.15785       .     S
H54   C61    1.15785       .     S
H56   C55    0.96894       .     S
C55   H56    0.96894       .     S
H57   C55    0.96947       .     S
C55   H57    0.96947       .     S
C58   C55    1.62827       .     S
C55   C58    1.62827       .     S
C61   C55    1.28504       .     S
C55   C61    1.28504       .     S
H62   C55    0.95479       .     S
C55   H62    0.95479       .     S
C64   C55    1.60565       .     S
C55   C64    1.60565       .     S
H59   C58    0.97077       .     S
C58   H59    0.97077       .     S
H60   C58    0.97073       .     S
C58   H60    0.97073       .     S
C61   C58    1.43020       .     S
C58   C61    1.43020       .     S
H62   C61    0.96918       .     S
C61   H62    0.96918       .     S
H63   C61    0.97109       .     S
C61   H63    0.97109       .     S
C64   C61    1.74305       .     S
C61   C64    1.74305       .     S
C67   C61    1.61250       .     S
C61   C67    1.61250       .     S
H65   C64    0.96940       .     S
C64   H65    0.96940       .     S
H66   C64    0.97014       .     S
C64   H66    0.97014       .     S
C67   C64    1.15629       .     S
C64   C67    1.15629       .     S
S70   C64    1.53181       .     S
C64   S70    1.53181       .     S
S71   C64    1.90833   1_556     S
C64   S71    1.90833   1_554     S
C67   H66    1.25772       .     S
H66   C67    1.25772       .     S
H68   C67    0.97200   1_556     S
C67   H68    0.97200   1_554     S
H69   C67    0.97169   1_556     S
C67   H69    0.97169   1_554     S
S70   C67    1.93010       .     S
C67   S70    1.93010       .     S
S71   C67    1.36785   1_556     S
C67   S71    1.36785   1_554     S
S71   H69    1.32167       .     S
H69   S71    1.32167       .     S
S71   S70    1.42308   1_556     S
S70   S71    1.42308   1_554     S
C72   S70    1.72946   1_556     S
S70   C72    1.72946   1_554     S
H73   S70    1.49243   1_556     S
S70   H73    1.49243   1_554     S
C83   S70    1.92419   1_556     S
S70   C83    1.92419   1_554     S
C72   S71    1.78253       .     S
S71   C72    1.78253       .     S
H73   C72    0.97568       .     S
C72   H73    0.97568       .     S
H74   C72    0.97349       .     S
C72   H74    0.97349       .     S
C76   C72    1.24785       .     S
C72   C76    1.24785       .     S
H77   C72    0.95653       .     S
C72   H77    0.95653       .     S
C81   C72    1.40086       .     S
C72   C81    1.40086       .     S
C83   C72    1.32949       .     S
C72   C83    1.32949       .     S
C76   H73    1.14046       .     S
H73   C76    1.14046       .     S
C76   H75    0.87836       .     S
H75   C76    0.87836       .     S
S80   H75    1.34627   1_565     S
H75   S80    1.34627   1_545     S
C81   H75    0.96606       .     S
H75   C81    0.96606       .     S
H77   C76    0.97077       .     S
C76   H77    0.97077       .     S
H78   C76    0.96537   1_565     S
C76   H78    0.96537   1_545     S
S80   C76    1.65339   1_565     S
C76   S80    1.65339   1_545     S
C81   C76    1.16071       .     S
C76   C81    1.16071       .     S
C83   C76    1.34485       .     S
C76   C83    1.34485       .     S
S80   S79    1.51164   1_565     S
S79   S80    1.51164   1_545     S
C81   S79    1.64476       .     S
S79   C81    1.64476       .     S
C81   S80    1.55048   1_545     S
S80   C81    1.55048   1_565     S
H82   C81    0.97352       .     S
C81   H82    0.97352       .     S
C83   C81    1.20134       .     S
C81   C83    1.20134       .     S
H84   C81    1.10243       .     S
C81   H84    1.10243       .     S
C83   H82    1.03003       .     S
H82   C83    1.03003       .     S
H84   H82    0.48243       .     S
H82   H84    0.48243       .     S
H84   C83    0.96680       .     S
C83   H84    0.96680       .     S
H85   C83    0.97048       .     S
C83   H85    0.97048       .     S
