data_I
_chemical_name_common  '/data/user2/wty/HOF/MOFDiff/mofdiff/data/test/254-auto'
_cell_length_a 14.14610
_cell_length_b 18.44570
_cell_length_c 19.07390
_cell_angle_alpha 113.50700
_cell_angle_beta  107.57700
_cell_angle_gamma 100.23900
_space_group_name_H-M_alt      'P 1'


loop_
_space_group_symop_operation_xyz
  'x, y, z' 

loop_
_atom_site_label
_atom_site_fract_x
_atom_site_fract_y
_atom_site_fract_z
_atom_site_type_symbol
C0       0.322  0.28269   0.1813     C
H1     0.35252   0.2619  0.13992     H
H2     0.25707  0.29229   0.1547     H
O3     0.49827  0.89222  0.14741     O
C4      0.4842  0.81739  0.08265     C
C5      0.4802  0.89312  0.21802     C
H6     0.52401    0.866  0.24279     H
H7     0.40508  0.86226  0.20016     H
C8     0.44688  0.74062  0.07954     C
H9     0.42965  0.73943   0.1236     H
C10    0.50932  0.82067  0.01775     C
C11    0.43434  0.66525  0.01267     C
C12     0.5546  0.89871  0.01436     C
C13    0.49421  0.74434  0.95043     C
H14    0.50957  0.74502  0.90548     H
C15    0.45769  0.66818  0.94744     C
H16    0.44837  0.61753  0.90088     H
C17     0.4027  0.58362  0.01238     C
O18    0.58254  0.89183  0.95653     O
N19     0.5657  0.97309  0.07333     N
H20    0.59323  0.01914  0.07229     H
H21    0.54543  0.97639   0.1135     H
C22    0.42982  0.57992  0.08705     C
H23    0.46293  0.63074    0.139     H
C24    0.35266  0.50828  0.93628     C
H25     0.3335  0.51004  0.88491     H
C26    0.40944  0.50332  0.08722     C
C27     0.3305  0.43088  0.93455     C
C28    0.44841  0.49998  0.16731     C
C29    0.35802  0.42927  0.01054     C
H30    0.34141  0.37677  0.00998     H
C31    0.28723  0.35124  0.85349     C
C32    0.53392  0.56602  0.23829     C
H33    0.56684  0.61403  0.23586     H
C34    0.40257  0.42982  0.17275     C
H35    0.34448  0.38426  0.12503     H
C36    0.22937  0.34719   0.7774     C
H37    0.21237  0.39483  0.77764     H
C38    0.30876  0.27981  0.85188     C
H39    0.34476  0.28023  0.90298     H
C40     0.5708  0.56201  0.31175     C
H41    0.62869  0.60789  0.35935     H
C42     0.4405   0.4256   0.2467     C
C43    0.19626   0.2744  0.70124     C
C44     0.2778  0.20837    0.776     C
H45    0.29467  0.16081  0.77613     H
C46     0.5259  0.49279  0.31849     C
O47     0.3967  0.35896   0.2549     O
O48    0.13829  0.26724  0.62585     O
C49     0.2226  0.20381  0.69942     C
C50     0.5754  0.49618  0.40223     C
C51     0.1214  0.34038  0.62213     C
H52    0.18962  0.38453  0.64331     H
H53    0.08304  0.36338  0.65654     H
C54     0.2003  0.12454  0.62207     C
N55     0.5339  0.43475  0.41422     N
H56    0.56192  0.43676  0.46319     H
H57    0.47804  0.39166  0.37328     H
O58     0.6535  0.55735   0.4582     O
C59     0.2981  0.22095  0.21112     C
H60    0.25265  0.22673  0.23935     H
C61     0.0577   0.3121  0.53213     C
H62    0.98628  0.27643    0.507     H
N63     0.1402  0.11184  0.54851     N
H64    0.12957  0.06638  0.50301     H
H65    0.11031  0.14872  0.54424     H
O66     0.2426  0.07377   0.6291     O
C67     0.3349    0.161   0.2011     C
H68    0.38054  0.15348  0.17313     H
H69    0.31656   0.1238  0.22162     H
C70     0.0947   0.3339   0.4865     C
H71    0.16584  0.36952  0.51019     H
H72     0.0508  0.31414   0.4293     H
C73     0.5092   0.9825   0.2802     C
H74    0.58013  0.01546  0.29836     H
H75    0.48653  0.01445  0.25415     H
C76     0.4605    0.021   0.3119     C
H77    0.38874  0.99336  0.29771     H
H78    0.49346  0.07922  0.35133     H
C79     0.5512    0.022   0.3505     C
H80    0.57777  0.99725  0.38383     H
H81    0.56023  0.08021  0.37651     H
O82      0.613   0.1899   0.2087     O
H83    0.67462   0.1894  0.20938     H
H84    0.62042    0.243  0.23313     H
C85     0.1861   0.5726   0.6192     C
H86    0.24326  0.60619  0.61339     H
H87    0.16255   0.5134  0.57502     H
C88     0.0537   0.5555   0.6959     C
H89    0.07002  0.61396  0.73881     H
H90    0.99758  0.51837  0.69943     H
O91     0.1455   0.5327  0.71403     O
C92     0.0141   0.5492   0.6119     C
H93    0.99283  0.49033  0.56779     H
H94    0.95201  0.56774  0.60266     H
C95     0.2264    0.578   0.7029     C
H96    0.28465  0.55481  0.70884     H
H97    0.25487  0.63763  0.74695     H
O98     0.0996   0.6035   0.6084     O
H99    0.03047  0.14394  0.37008     H
C100    0.9824   0.0857   0.3285     C
H101   0.01101  0.13259  0.38415     H
C102    0.9085   0.0589   0.3608     C
H103   0.86606  0.99856  0.32273     H
H104   0.94875  0.06571  0.41679     H
C105    0.9468   0.0904   0.3734     C
H106   0.96457  0.07945  0.42169     H
H107   0.02583  0.04891  0.32147     H
O108    0.9288   0.0122   0.2996     O
O109    0.9288   0.0823   0.2495     O
C110      0.89   0.0366   0.2295     C
H111   0.95066  0.07847   0.2355     H
C112    0.7786    0.093   0.2872     C
H113   0.72742  0.12316  0.29028     H
H114   0.73903  0.03222  0.24888     H
C115    0.8536   0.1259   0.2558     C
H116   0.81256  0.11897  0.19989     H
H117   0.89218  0.18676  0.29459     H
O118    0.8308   0.1442   0.3072     O
C119    0.8036   0.0716   0.2289     C
H120   0.78645   0.0869  0.18349     H
H121   0.73983  0.02795  0.21664     H
O122    0.8401   0.1066   0.3673     O
C123     0.869     0.13   0.3766     C
H124   0.80923  0.09494  0.37818     H
H125   0.90015   0.1851   0.4289     H
H126   0.86602  0.98595  0.17439     H
C127    0.8286   0.9081   0.0366     C
H128   0.75354  0.89918  0.00948     H
H129    0.8646  0.91789  0.00299     H
H130   0.85988  0.95711  0.09283     H
H131   0.78712  0.93038  0.06098     H
N132    0.8589   0.7724    0.018     N
C133    0.8407   0.8303   0.0438     C
C134    0.8132   0.9039   0.0947     C
H135    0.8762   0.9451  0.14545     H
H136    0.7584  0.88371  0.11062     H
loop_
_geom_bond_atom_site_label_1
_geom_bond_atom_site_label_2
_geom_bond_distance
_geom_bond_site_symmetry_2
_ccdc_geom_bond_type
H21   O3     1.99182       .     S
O3    H21    1.99182       .     S
H57   O47    1.97074       .     S
O47   H57    1.97074       .     S
H65   O48    1.99115       .     S
O48   H65    1.99115       .     S
C0    H1     0.98977       .     S
H1    C0     0.98977       .     S
C0    H2     0.99018       .     S
H2    C0     0.99018       .     S
C0    O47    1.43759       .     S
O47   C0     1.43759       .     S
C0    C59    1.49357       .     S
C59   C0     1.49357       .     S
O3    C4     1.36541       .     S
C4    O3     1.36541       .     S
O3    C5     1.43914       .     S
C5    O3     1.43914       .     S
C4    C8     1.39133       .     S
C8    C4     1.39133       .     S
C4    C10    1.40716       .     S
C10   C4     1.40716       .     S
C5    H6     0.98967       .     S
H6    C5     0.98967       .     S
C5    H7     0.99042       .     S
H7    C5     0.99042       .     S
C5    C73    1.48288       .     S
C73   C5     1.48288       .     S
C8    H9     0.95010       .     S
H9    C8     0.95010       .     S
C8    C11    1.39722       .     S
C11   C8     1.39722       .     S
C10   C12    1.50270       .     S
C12   C10    1.50270       .     S
C10   C13    1.40067   1_554     S
C13   C10    1.40067   1_556     S
C11   C15    1.39841   1_554     S
C15   C11    1.39841   1_556     S
C11   C17    1.48991       .     S
C17   C11    1.48991       .     S
C12   O18    1.24840   1_554     S
O18   C12    1.24840   1_556     S
C12   N19    1.32584       .     S
N19   C12    1.32584       .     S
C13   H14    0.95004       .     S
H14   C13    0.95004       .     S
C13   C15    1.37984       .     S
C15   C13    1.37984       .     S
C15   H16    0.95003       .     S
H16   C15    0.95003       .     S
C17   C22    1.39182       .     S
C22   C17    1.39182       .     S
C17   C24    1.39993   1_554     S
C24   C17    1.39993   1_556     S
N19   H20    0.87982   1_565     S
H20   N19    0.87982   1_545     S
N19   H21    0.88016       .     S
H21   N19    0.88016       .     S
C22   H23    0.95005       .     S
H23   C22    0.95005       .     S
C22   C26    1.39246       .     S
C26   C22    1.39246       .     S
C24   H25    0.95010       .     S
H25   C24    0.95010       .     S
C24   C27    1.39095       .     S
C27   C24    1.39095       .     S
C26   C28    1.48992       .     S
C28   C26    1.48992       .     S
C26   C29    1.39447       .     S
C29   C26    1.39447       .     S
C27   C29    1.39675   1_556     S
C29   C27    1.39675   1_554     S
C27   C31    1.48999       .     S
C31   C27    1.48999       .     S
C28   C32    1.39695       .     S
C32   C28    1.39695       .     S
C28   C34    1.39839       .     S
C34   C28    1.39839       .     S
C29   H30    0.94998       .     S
H30   C29    0.94998       .     S
C31   C36    1.39864       .     S
C36   C31    1.39864       .     S
C31   C38    1.39490       .     S
C38   C31    1.39490       .     S
C32   H33    0.94996       .     S
H33   C32    0.94996       .     S
C32   C40    1.37689       .     S
C40   C32    1.37689       .     S
C34   H35    0.95002       .     S
H35   C34    0.95002       .     S
C34   C42    1.38883       .     S
C42   C34    1.38883       .     S
C36   H37    0.95008       .     S
H37   C36    0.95008       .     S
C36   C43    1.39354       .     S
C43   C36    1.39354       .     S
C38   H39    0.94983       .     S
H39   C38    0.94983       .     S
C38   C44    1.38333       .     S
C44   C38    1.38333       .     S
C40   H41    0.95014       .     S
H41   C40    0.95014       .     S
C40   C46    1.39361       .     S
C46   C40    1.39361       .     S
C42   C46    1.40901       .     S
C46   C42    1.40901       .     S
C42   O47    1.36400       .     S
O47   C42    1.36400       .     S
C43   O48    1.36216       .     S
O48   C43    1.36216       .     S
C43   C49    1.40702       .     S
C49   C43    1.40702       .     S
C44   H45    0.94994       .     S
H45   C44    0.94994       .     S
C44   C49    1.39290       .     S
C49   C44    1.39290       .     S
C46   C50    1.50821       .     S
C50   C46    1.50821       .     S
O48   C51    1.43630       .     S
C51   O48    1.43630       .     S
C49   C54    1.49941       .     S
C54   C49    1.49941       .     S
C50   N55    1.31614       .     S
N55   C50    1.31614       .     S
C50   O58    1.23166       .     S
O58   C50    1.23166       .     S
C51   H52    0.99016       .     S
H52   C51    0.99016       .     S
C51   H53    0.98998       .     S
H53   C51    0.98998       .     S
C51   C61    1.48838       .     S
C61   C51    1.48838       .     S
C54   N63    1.30109       .     S
N63   C54    1.30109       .     S
C54   O66    1.22637       .     S
O66   C54    1.22637       .     S
N55   H56    0.88004       .     S
H56   N55    0.88004       .     S
N55   H57    0.88026       .     S
H57   N55    0.88026       .     S
C59   H60    0.94992       .     S
H60   C59    0.94992       .     S
C59   C67    1.27535       .     S
C67   C59    1.27535       .     S
C61   H62    0.95027   1_455     S
H62   C61    0.95026   1_655     S
C61   C70    1.29331       .     S
C70   C61    1.29331       .     S
N63   H64    0.88021       .     S
H64   N63    0.88021       .     S
N63   H65    0.87969       .     S
H65   N63    0.87969       .     S
C67   H68    0.94949       .     S
H68   C67    0.94949       .     S
C67   H69    0.95059       .     S
H69   C67    0.95059       .     S
C70   H71    0.94978       .     S
H71   C70    0.94978       .     S
C70   H72    0.94970       .     S
H72   C70    0.94970       .     S
C73   H74    0.94953   1_565     S
H74   C73    0.94953   1_545     S
C73   H75    0.94952   1_565     S
H75   C73    0.94952   1_545     S
C73   C76    1.19478   1_565     S
C76   C73    1.19478   1_545     S
C73   C79    1.12580   1_565     S
C79   C73    1.12580   1_545     S
H74   C79    1.15705       .     S
C79   H74    1.15705       .     S
H75   C76    1.23213       .     S
C76   H75    1.23213       .     S
C76   H77    0.95061   1_545     S
H77   C76    0.95061   1_565     S
C76   H78    0.94985       .     S
H78   C76    0.94985       .     S
C76   C79    1.26445       .     S
C79   C76    1.26445       .     S
C79   H80    0.94977   1_545     S
H80   C79    0.94977   1_565     S
C79   H81    0.95045       .     S
H81   C79    0.95045       .     S
O82   H83    0.86960       .     S
H83   O82    0.86960       .     S
O82   H84    0.87025       .     S
H84   O82    0.87025       .     S
C85   H86    0.99034       .     S
H86   C85    0.99034       .     S
C85   H87    0.99024       .     S
H87   C85    0.99024       .     S
C85   C95    1.47883       .     S
C95   C85    1.47883       .     S
C85   O98    1.43316       .     S
O98   C85    1.43316       .     S
C88   H89    0.98960       .     S
H89   C88    0.98960       .     S
C88   H90    0.98976   1_455     S
H90   C88    0.98976   1_655     S
C88   O91    1.42190       .     S
O91   C88    1.42190       .     S
C88   C92    1.47669       .     S
C92   C88    1.47669       .     S
O91   C95    1.41466       .     S
C95   O91    1.41466       .     S
C92   H93    0.98980   1_455     S
H93   C92    0.98980   1_655     S
C92   H94    0.99038   1_455     S
H94   C92    0.99038   1_655     S
C92   O98    1.46355       .     S
O98   C92    1.46355       .     S
C95   H96    0.99115       .     S
H96   C95    0.99115       .     S
C95   H97    0.98938       .     S
H97   C95    0.98938       .     S
H99   C100   0.99014   1_455     S
C100  H99    0.99014   1_655     S
H99   H101   0.51048       .     S
H101  H99    0.51048       .     S
C100  H101   0.96037   1_655     S
H101  C100   0.96037   1_455     S
C100  C102   1.47140       .     S
C102  C100   1.47140       .     S
C100  C105   1.10062       .     S
C105  C100   1.10062       .     S
C100  H107   0.99062   1_655     S
H107  C100   0.99062   1_455     S
C100  O108   1.22588       .     S
O108  C100   1.22588       .     S
C100  O109   1.43773       .     S
O109  C100   1.43773       .     S
C100  C110   1.67888       .     S
C110  C100   1.67888       .     S
H101  C105   0.99078   1_455     S
C105  H101   0.99078   1_655     S
C102  H103   0.99042   1_545     S
H103  C102   0.99042   1_565     S
C102  H104   0.99035       .     S
H104  C102   0.99035       .     S
C102  C105   0.62206       .     S
C105  C102   0.62206       .     S
C102  H106   1.05225       .     S
H106  C102   1.05225       .     S
C102  O108   1.29437       .     S
O108  C102   1.29437       .     S
C102  O122   1.41910       .     S
O122  C102   1.41910       .     S
C102  C123   1.47309       .     S
C123  C102   1.47309       .     S
H103  O108   1.13635   1_565     S
O108  H103   1.13635   1_545     S
H104  C105   1.08834       .     S
C105  H104   1.08834       .     S
H104  H106   0.26713       .     S
H106  H104   0.26713       .     S
C105  H106   0.98944       .     S
H106  C105   0.98944       .     S
C105  O108   1.46976       .     S
O108  C105   1.46976       .     S
C105  O122   1.56943       .     S
O122  C105   1.56943       .     S
C105  C123   1.42805       .     S
C123  C105   1.42805       .     S
O108  C110   1.55443       .     S
C110  O108   1.55443       .     S
O109  C110   0.78096       .     S
C110  O109   0.78096       .     S
O109  H111   0.46316       .     S
H111  O109   0.46316       .     S
O109  C115   1.44815       .     S
C115  O109   1.44815       .     S
C110  H111   0.99020       .     S
H111  C110   0.99020       .     S
C110  C115   1.74024       .     S
C115  C110   1.74024       .     S
C110  C119   1.47943       .     S
C119  C110   1.47943       .     S
C110  H126   0.99067   1_545     S
H126  C110   0.99067   1_565     S
C112  H113   0.98991       .     S
H113  C112   0.98991       .     S
C112  H114   0.99025       .     S
H114  C112   0.99025       .     S
C112  C115   1.51573       .     S
C115  C112   1.51573       .     S
C112  O118   0.93662       .     S
O118  C112   0.93662       .     S
C112  C119   1.20600       .     S
C119  C112   1.20600       .     S
C112  H121   1.25852       .     S
H121  C112   1.25852       .     S
C112  O122   1.40282       .     S
O122  C112   1.40282       .     S
C112  C123   1.56626       .     S
C123  C112   1.56626       .     S
H114  C119   1.30476       .     S
C119  H114   1.30476       .     S
H114  H121   0.59192       .     S
H121  H114   0.59192       .     S
C115  H116   0.99075       .     S
H116  C115   0.99075       .     S
C115  H117   0.99058       .     S
H117  C115   0.99058       .     S
C115  O118   1.06997       .     S
O118  C115   1.06997       .     S
C115  C119   0.94114       .     S
C119  C115   0.94114       .     S
C115  H120   1.22327       .     S
H120  C115   1.22327       .     S
H116  C119   1.21425       .     S
C119  H116   1.21425       .     S
H116  H120   0.53771       .     S
H120  H116   0.53771       .     S
H117  O118   1.20934       .     S
O118  H117   1.20934       .     S
O118  C119   1.43045       .     S
C119  O118   1.43045       .     S
O118  C123   1.41695       .     S
C123  O118   1.41695       .     S
C119  H120   0.99052       .     S
H120  C119   0.99052       .     S
C119  H121   0.99041       .     S
H121  C119   0.99041       .     S
O122  C123   0.46615       .     S
C123  O122   0.46615       .     S
O122  H124   0.58049       .     S
H124  O122   0.58049       .     S
C123  H124   0.98518       .     S
H124  C123   0.98518       .     S
C123  H125   0.99438       .     S
H125  C123   0.99438       .     S
C127  H128   0.97997       .     S
H128  C127   0.97997       .     S
C127  H129   0.97968       .     S
H129  C127   0.97968       .     S
C127  H130   0.98034       .     S
H130  C127   0.98034       .     S
C127  H131   0.90969       .     S
H131  C127   0.90969       .     S
C127  C133   1.52903       .     S
C133  C127   1.52903       .     S
C127  C134   1.22059       .     S
C134  C127   1.22059       .     S
H130  C134   1.10109       .     S
C134  H130   1.10109       .     S
H131  C134   0.97965       .     S
C134  H131   0.97965       .     S
N132  C133   1.09732       .     S
C133  N132   1.09732       .     S
C133  C134   1.51705       .     S
C134  C133   1.51705       .     S
C134  H135   0.97987       .     S
H135  C134   0.97987       .     S
C134  H136   0.98061       .     S
H136  C134   0.98061       .     S
O3    H21    1.99182       .     S
H21   O3     1.99182       .     S
O47   H57    1.97074       .     S
H57   O47    1.97074       .     S
O48   H65    1.99115       .     S
H65   O48    1.99115       .     S
H1    C0     0.98977       .     S
C0    H1     0.98977       .     S
H2    C0     0.99018       .     S
C0    H2     0.99018       .     S
O47   C0     1.43759       .     S
C0    O47    1.43759       .     S
C59   C0     1.49357       .     S
C0    C59    1.49357       .     S
C4    O3     1.36541       .     S
O3    C4     1.36541       .     S
C5    O3     1.43914       .     S
O3    C5     1.43914       .     S
C8    C4     1.39133       .     S
C4    C8     1.39133       .     S
C10   C4     1.40716       .     S
C4    C10    1.40716       .     S
H6    C5     0.98967       .     S
C5    H6     0.98967       .     S
H7    C5     0.99042       .     S
C5    H7     0.99042       .     S
C73   C5     1.48288       .     S
C5    C73    1.48288       .     S
H9    C8     0.95010       .     S
C8    H9     0.95010       .     S
C11   C8     1.39722       .     S
C8    C11    1.39722       .     S
C12   C10    1.50270       .     S
C10   C12    1.50270       .     S
C13   C10    1.40067   1_556     S
C10   C13    1.40067   1_554     S
C15   C11    1.39841   1_556     S
C11   C15    1.39841   1_554     S
C17   C11    1.48991       .     S
C11   C17    1.48991       .     S
O18   C12    1.24840   1_556     S
C12   O18    1.24840   1_554     S
N19   C12    1.32584       .     S
C12   N19    1.32584       .     S
H14   C13    0.95004       .     S
C13   H14    0.95004       .     S
C15   C13    1.37984       .     S
C13   C15    1.37984       .     S
H16   C15    0.95003       .     S
C15   H16    0.95003       .     S
C22   C17    1.39182       .     S
C17   C22    1.39182       .     S
C24   C17    1.39993   1_556     S
C17   C24    1.39993   1_554     S
H20   N19    0.87982   1_545     S
N19   H20    0.87982   1_565     S
H21   N19    0.88016       .     S
N19   H21    0.88016       .     S
H23   C22    0.95005       .     S
C22   H23    0.95005       .     S
C26   C22    1.39246       .     S
C22   C26    1.39246       .     S
H25   C24    0.95010       .     S
C24   H25    0.95010       .     S
C27   C24    1.39095       .     S
C24   C27    1.39095       .     S
C28   C26    1.48992       .     S
C26   C28    1.48992       .     S
C29   C26    1.39447       .     S
C26   C29    1.39447       .     S
C29   C27    1.39675   1_554     S
C27   C29    1.39675   1_556     S
C31   C27    1.48999       .     S
C27   C31    1.48999       .     S
C32   C28    1.39695       .     S
C28   C32    1.39695       .     S
C34   C28    1.39839       .     S
C28   C34    1.39839       .     S
H30   C29    0.94998       .     S
C29   H30    0.94998       .     S
C36   C31    1.39864       .     S
C31   C36    1.39864       .     S
C38   C31    1.39490       .     S
C31   C38    1.39490       .     S
H33   C32    0.94996       .     S
C32   H33    0.94996       .     S
C40   C32    1.37689       .     S
C32   C40    1.37689       .     S
H35   C34    0.95002       .     S
C34   H35    0.95002       .     S
C42   C34    1.38883       .     S
C34   C42    1.38883       .     S
H37   C36    0.95008       .     S
C36   H37    0.95008       .     S
C43   C36    1.39354       .     S
C36   C43    1.39354       .     S
H39   C38    0.94983       .     S
C38   H39    0.94983       .     S
C44   C38    1.38333       .     S
C38   C44    1.38333       .     S
H41   C40    0.95014       .     S
C40   H41    0.95014       .     S
C46   C40    1.39361       .     S
C40   C46    1.39361       .     S
C46   C42    1.40901       .     S
C42   C46    1.40901       .     S
O47   C42    1.36400       .     S
C42   O47    1.36400       .     S
O48   C43    1.36216       .     S
C43   O48    1.36216       .     S
C49   C43    1.40702       .     S
C43   C49    1.40702       .     S
H45   C44    0.94994       .     S
C44   H45    0.94994       .     S
C49   C44    1.39290       .     S
C44   C49    1.39290       .     S
C50   C46    1.50821       .     S
C46   C50    1.50821       .     S
C51   O48    1.43630       .     S
O48   C51    1.43630       .     S
C54   C49    1.49941       .     S
C49   C54    1.49941       .     S
N55   C50    1.31614       .     S
C50   N55    1.31614       .     S
O58   C50    1.23166       .     S
C50   O58    1.23166       .     S
H52   C51    0.99016       .     S
C51   H52    0.99016       .     S
H53   C51    0.98998       .     S
C51   H53    0.98998       .     S
C61   C51    1.48838       .     S
C51   C61    1.48838       .     S
N63   C54    1.30109       .     S
C54   N63    1.30109       .     S
O66   C54    1.22637       .     S
C54   O66    1.22637       .     S
H56   N55    0.88004       .     S
N55   H56    0.88004       .     S
H57   N55    0.88026       .     S
N55   H57    0.88026       .     S
H60   C59    0.94992       .     S
C59   H60    0.94992       .     S
C67   C59    1.27535       .     S
C59   C67    1.27535       .     S
H62   C61    0.95026   1_655     S
C61   H62    0.95027   1_455     S
C70   C61    1.29331       .     S
C61   C70    1.29331       .     S
H64   N63    0.88021       .     S
N63   H64    0.88021       .     S
H65   N63    0.87969       .     S
N63   H65    0.87969       .     S
H68   C67    0.94949       .     S
C67   H68    0.94949       .     S
H69   C67    0.95059       .     S
C67   H69    0.95059       .     S
H71   C70    0.94978       .     S
C70   H71    0.94978       .     S
H72   C70    0.94970       .     S
C70   H72    0.94970       .     S
H74   C73    0.94953   1_545     S
C73   H74    0.94953   1_565     S
H75   C73    0.94952   1_545     S
C73   H75    0.94952   1_565     S
C76   C73    1.19478   1_545     S
C73   C76    1.19478   1_565     S
C79   C73    1.12580   1_545     S
C73   C79    1.12580   1_565     S
C79   H74    1.15705       .     S
H74   C79    1.15705       .     S
C76   H75    1.23213       .     S
H75   C76    1.23213       .     S
H77   C76    0.95061   1_565     S
C76   H77    0.95061   1_545     S
H78   C76    0.94985       .     S
C76   H78    0.94985       .     S
C79   C76    1.26445       .     S
C76   C79    1.26445       .     S
H80   C79    0.94977   1_565     S
C79   H80    0.94977   1_545     S
H81   C79    0.95045       .     S
C79   H81    0.95045       .     S
H83   O82    0.86960       .     S
O82   H83    0.86960       .     S
H84   O82    0.87025       .     S
O82   H84    0.87025       .     S
H86   C85    0.99034       .     S
C85   H86    0.99034       .     S
H87   C85    0.99024       .     S
C85   H87    0.99024       .     S
C95   C85    1.47883       .     S
C85   C95    1.47883       .     S
O98   C85    1.43316       .     S
C85   O98    1.43316       .     S
H89   C88    0.98960       .     S
C88   H89    0.98960       .     S
H90   C88    0.98976   1_655     S
C88   H90    0.98976   1_455     S
O91   C88    1.42190       .     S
C88   O91    1.42190       .     S
C92   C88    1.47669       .     S
C88   C92    1.47669       .     S
C95   O91    1.41466       .     S
O91   C95    1.41466       .     S
H93   C92    0.98980   1_655     S
C92   H93    0.98980   1_455     S
H94   C92    0.99038   1_655     S
C92   H94    0.99038   1_455     S
O98   C92    1.46355       .     S
C92   O98    1.46355       .     S
H96   C95    0.99115       .     S
C95   H96    0.99115       .     S
H97   C95    0.98938       .     S
C95   H97    0.98938       .     S
C100  H99    0.99014   1_655     S
H99   C100   0.99014   1_455     S
H101  H99    0.51048       .     S
H99   H101   0.51048       .     S
H101  C100   0.96037   1_455     S
C100  H101   0.96037   1_655     S
C102  C100   1.47140       .     S
C100  C102   1.47140       .     S
C105  C100   1.10062       .     S
C100  C105   1.10062       .     S
H107  C100   0.99062   1_455     S
C100  H107   0.99062   1_655     S
O108  C100   1.22588       .     S
C100  O108   1.22588       .     S
O109  C100   1.43773       .     S
C100  O109   1.43773       .     S
C110  C100   1.67888       .     S
C100  C110   1.67888       .     S
C105  H101   0.99078   1_655     S
H101  C105   0.99078   1_455     S
H103  C102   0.99042   1_565     S
C102  H103   0.99042   1_545     S
H104  C102   0.99035       .     S
C102  H104   0.99035       .     S
C105  C102   0.62206       .     S
C102  C105   0.62206       .     S
H106  C102   1.05225       .     S
C102  H106   1.05225       .     S
O108  C102   1.29437       .     S
C102  O108   1.29437       .     S
O122  C102   1.41910       .     S
C102  O122   1.41910       .     S
C123  C102   1.47309       .     S
C102  C123   1.47309       .     S
O108  H103   1.13635   1_545     S
H103  O108   1.13635   1_565     S
C105  H104   1.08834       .     S
H104  C105   1.08834       .     S
H106  H104   0.26713       .     S
H104  H106   0.26713       .     S
H106  C105   0.98944       .     S
C105  H106   0.98944       .     S
O108  C105   1.46976       .     S
C105  O108   1.46976       .     S
O122  C105   1.56943       .     S
C105  O122   1.56943       .     S
C123  C105   1.42805       .     S
C105  C123   1.42805       .     S
C110  O108   1.55443       .     S
O108  C110   1.55443       .     S
C110  O109   0.78096       .     S
O109  C110   0.78096       .     S
H111  O109   0.46316       .     S
O109  H111   0.46316       .     S
C115  O109   1.44815       .     S
O109  C115   1.44815       .     S
H111  C110   0.99020       .     S
C110  H111   0.99020       .     S
C115  C110   1.74024       .     S
C110  C115   1.74024       .     S
C119  C110   1.47943       .     S
C110  C119   1.47943       .     S
H126  C110   0.99067   1_565     S
C110  H126   0.99067   1_545     S
H113  C112   0.98991       .     S
C112  H113   0.98991       .     S
H114  C112   0.99025       .     S
C112  H114   0.99025       .     S
C115  C112   1.51573       .     S
C112  C115   1.51573       .     S
O118  C112   0.93662       .     S
C112  O118   0.93662       .     S
C119  C112   1.20600       .     S
C112  C119   1.20600       .     S
H121  C112   1.25852       .     S
C112  H121   1.25852       .     S
O122  C112   1.40282       .     S
C112  O122   1.40282       .     S
C123  C112   1.56626       .     S
C112  C123   1.56626       .     S
C119  H114   1.30476       .     S
H114  C119   1.30476       .     S
H121  H114   0.59192       .     S
H114  H121   0.59192       .     S
H116  C115   0.99075       .     S
C115  H116   0.99075       .     S
H117  C115   0.99058       .     S
C115  H117   0.99058       .     S
O118  C115   1.06997       .     S
C115  O118   1.06997       .     S
C119  C115   0.94114       .     S
C115  C119   0.94114       .     S
H120  C115   1.22327       .     S
C115  H120   1.22327       .     S
C119  H116   1.21425       .     S
H116  C119   1.21425       .     S
H120  H116   0.53771       .     S
H116  H120   0.53771       .     S
O118  H117   1.20934       .     S
H117  O118   1.20934       .     S
C119  O118   1.43045       .     S
O118  C119   1.43045       .     S
C123  O118   1.41695       .     S
O118  C123   1.41695       .     S
H120  C119   0.99052       .     S
C119  H120   0.99052       .     S
H121  C119   0.99041       .     S
C119  H121   0.99041       .     S
C123  O122   0.46615       .     S
O122  C123   0.46615       .     S
H124  O122   0.58049       .     S
O122  H124   0.58049       .     S
H124  C123   0.98518       .     S
C123  H124   0.98518       .     S
H125  C123   0.99438       .     S
C123  H125   0.99438       .     S
H128  C127   0.97997       .     S
C127  H128   0.97997       .     S
H129  C127   0.97968       .     S
C127  H129   0.97968       .     S
H130  C127   0.98034       .     S
C127  H130   0.98034       .     S
H131  C127   0.90969       .     S
C127  H131   0.90969       .     S
C133  C127   1.52903       .     S
C127  C133   1.52903       .     S
C134  C127   1.22059       .     S
C127  C134   1.22059       .     S
C134  H130   1.10109       .     S
H130  C134   1.10109       .     S
C134  H131   0.97965       .     S
H131  C134   0.97965       .     S
C133  N132   1.09732       .     S
N132  C133   1.09732       .     S
C134  C133   1.51705       .     S
C133  C134   1.51705       .     S
H135  C134   0.97987       .     S
C134  H135   0.97987       .     S
H136  C134   0.98061       .     S
C134  H136   0.98061       .     S
