data_I
_chemical_name_common  '/data/user2/wty/HOF/MOFDiff/mofdiff/data/test/254-ck1022e'
_cell_length_a 26.45430
_cell_length_b 20.08810
_cell_length_c 10.22230
_cell_angle_alpha 90.00000
_cell_angle_beta  98.13900
_cell_angle_gamma 90.00000
_space_group_name_H-M_alt      'P 1'


loop_
_space_group_symop_operation_xyz
  'x, y, z' 

loop_
_atom_site_label
_atom_site_fract_x
_atom_site_fract_y
_atom_site_fract_z
_atom_site_type_symbol
O0     0.29863  0.35901  0.28654     O
O1     0.29914  0.73638  0.22158     O
O2     0.28419  0.43794  0.64104     O
O3     0.33829  0.78368  0.61762     O
N4     0.26422  0.32989  0.46562     N
H5     0.24124  0.30457  0.41886     H
H6     0.26469  0.33341   0.5516     H
N7     0.27704  0.79528  0.38969     N
H8     0.25343  0.81674  0.33662     H
H9     0.28182  0.80419  0.47483     H
C10    0.45929  0.52741  0.67732     C
C11    0.45969  0.59718  0.67392     C
C12        0.5    0.494     0.75     C
H13        0.5  0.44671     0.75     H
C14        0.5  0.63048     0.75     C
H15        0.5  0.67777     0.75     H
C16    0.41636  0.48565  0.60965     C
C17    0.42522  0.44341    0.507     C
H18    0.45799  0.44112  0.47945     H
C19    0.38529  0.40491   0.4463     C
H20     0.3907  0.37806  0.37301     H
C21    0.33792  0.40398  0.48794     C
C22       0.33  0.44381   0.5963     C
C23    0.36895  0.48657  0.65217     C
H24    0.36278  0.51657     0.72     H
C25    0.29771  0.36232   0.4073     C
C26    0.27738   0.4753   0.7569     C
H27    0.27721  0.52358  0.73739     H
H28    0.30566  0.46596  0.82884     H
C29    0.22781   0.4551   0.7974     C
H30    0.19848  0.45464  0.73201     H
C31    0.22226  0.43794   0.9178     C
H32     0.2509  0.43793  0.98533     H
H33    0.18957  0.42548  0.93787     H
C34    0.41979  0.63685  0.59054     C
C35    0.40419   0.6199   0.4588     C
H36    0.41828  0.58212  0.42121     H
C37    0.36795  0.65878   0.3833     C
H38    0.35818  0.64753  0.29302     H
C39    0.34536  0.71332   0.4339     C
C40    0.36078  0.73028    0.568     C
C41    0.39896  0.69259   0.6421     C
H42    0.41098  0.70557   0.7304     H
C43    0.30498   0.7502   0.3421     C
C44    0.34796  0.79775   0.7565     C
H45    0.35337  0.75536  0.80592     H
H46    0.31765  0.81984  0.78369     H
C47    0.39276   0.8406   0.7912     C
H48    0.40139   0.8525  0.88157     H
C49     0.4216   0.8637   0.7088     C
H50    0.41438    0.853  0.61755     H
H51    0.45001  0.89121  0.73987     H
loop_
_geom_bond_atom_site_label_1
_geom_bond_atom_site_label_2
_geom_bond_distance
_geom_bond_site_symmetry_2
_ccdc_geom_bond_type
H6    O2     2.31898       .     S
O2    H6     2.31898       .     S
H9    O3     1.97852       .     S
O3    H9     1.97852       .     S
O0    C25    1.23991       .     S
C25   O0     1.23991       .     S
O1    C43    1.25094       .     S
C43   O1     1.25094       .     S
O2    C22    1.35965       .     S
C22   O2     1.35965       .     S
O2    C26    1.43485       .     S
C26   O2     1.43485       .     S
O3    C40    1.35919       .     S
C40   O3     1.35919       .     S
O3    C44    1.43456       .     S
C44   O3     1.43456       .     S
N4    H5     0.88004       .     S
H5    N4     0.88004       .     S
N4    H6     0.88008       .     S
H6    N4     0.88008       .     S
N4    C25    1.30930       .     S
C25   N4     1.30930       .     S
N7    H8     0.87995       .     S
H8    N7     0.87995       .     S
N7    H9     0.87996       .     S
H9    N7     0.87996       .     S
N7    C43    1.30570       .     S
C43   N7     1.30570       .     S
C10   C11    1.40206       .     S
C11   C10    1.40206       .     S
C10   C12    1.39129       .     S
C12   C10    1.39129       .     S
C10   C16    1.49985       .     S
C16   C10    1.49985       .     S
C11   C14    1.39808       .     S
C14   C11    1.39808       .     S
C11   C34    1.49027       .     S
C34   C11    1.49027       .     S
C12   H13    0.94997       .     S
H13   C12    0.94997       .     S
C14   H15    0.94997       .     S
H15   C14    0.94997       .     S
C16   C17    1.39486       .     S
C17   C16    1.39486       .     S
C16   C23    1.38442       .     S
C23   C16    1.38442       .     S
C17   H18    0.94978       .     S
H18   C17    0.94978       .     S
C17   C19    1.38325       .     S
C19   C17    1.38325       .     S
C19   H20    0.95029       .     S
H20   C19    0.95029       .     S
C19   C21    1.37947       .     S
C21   C19    1.37947       .     S
C21   C22    1.40597       .     S
C22   C21    1.40597       .     S
C21   C25    1.50436       .     S
C25   C21    1.50436       .     S
C22   C23    1.39967       .     S
C23   C22    1.39967       .     S
C23   H24    0.95007       .     S
H24   C23    0.95007       .     S
C26   H27    0.99003       .     S
H27   C26    0.99003       .     S
C26   H28    0.98991       .     S
H28   C26    0.98991       .     S
C26   C29    1.48640       .     S
C29   C26    1.48640       .     S
C29   H30    0.94977       .     S
H30   C29    0.94977       .     S
C29   C31    1.30627       .     S
C31   C29    1.30627       .     S
C31   H32    0.94999       .     S
H32   C31    0.94999       .     S
C31   H33    0.95018       .     S
H33   C31    0.95018       .     S
C34   C35    1.39372       .     S
C35   C34    1.39372       .     S
C34   C41    1.38471       .     S
C41   C34    1.38471       .     S
C35   H36    0.95032       .     S
H36   C35    0.95032       .     S
C35   C37    1.38393       .     S
C37   C35    1.38393       .     S
C37   H38    0.94975       .     S
H38   C37    0.94975       .     S
C37   C39    1.38295       .     S
C39   C37    1.38295       .     S
C39   C40    1.41537       .     S
C40   C39    1.41537       .     S
C39   C43    1.51219       .     S
C43   C39    1.51219       .     S
C40   C41    1.39661       .     S
C41   C40    1.39661       .     S
C41   H42    0.95004       .     S
H42   C41    0.95004       .     S
C44   H45    0.99012       .     S
H45   C44    0.99012       .     S
C44   H46    0.99005       .     S
H46   C44    0.99005       .     S
C44   C47    1.46707       .     S
C47   C44    1.46707       .     S
C47   H48    0.95023       .     S
H48   C47    0.95023       .     S
C47   C49    1.29957       .     S
C49   C47    1.29957       .     S
C49   H50    0.94991       .     S
H50   C49    0.94991       .     S
C49   H51    0.95054       .     S
H51   C49    0.95054       .     S
O2    H6     2.31898       .     S
H6    O2     2.31898       .     S
O3    H9     1.97852       .     S
H9    O3     1.97852       .     S
C25   O0     1.23991       .     S
O0    C25    1.23991       .     S
C43   O1     1.25094       .     S
O1    C43    1.25094       .     S
C22   O2     1.35965       .     S
O2    C22    1.35965       .     S
C26   O2     1.43485       .     S
O2    C26    1.43485       .     S
C40   O3     1.35919       .     S
O3    C40    1.35919       .     S
C44   O3     1.43456       .     S
O3    C44    1.43456       .     S
H5    N4     0.88004       .     S
N4    H5     0.88004       .     S
H6    N4     0.88008       .     S
N4    H6     0.88008       .     S
C25   N4     1.30930       .     S
N4    C25    1.30930       .     S
H8    N7     0.87995       .     S
N7    H8     0.87995       .     S
H9    N7     0.87996       .     S
N7    H9     0.87996       .     S
C43   N7     1.30570       .     S
N7    C43    1.30570       .     S
C11   C10    1.40206       .     S
C10   C11    1.40206       .     S
C12   C10    1.39129       .     S
C10   C12    1.39129       .     S
C16   C10    1.49985       .     S
C10   C16    1.49985       .     S
C14   C11    1.39808       .     S
C11   C14    1.39808       .     S
C34   C11    1.49027       .     S
C11   C34    1.49027       .     S
H13   C12    0.94997       .     S
C12   H13    0.94997       .     S
H15   C14    0.94997       .     S
C14   H15    0.94997       .     S
C17   C16    1.39486       .     S
C16   C17    1.39486       .     S
C23   C16    1.38442       .     S
C16   C23    1.38442       .     S
H18   C17    0.94978       .     S
C17   H18    0.94978       .     S
C19   C17    1.38325       .     S
C17   C19    1.38325       .     S
H20   C19    0.95029       .     S
C19   H20    0.95029       .     S
C21   C19    1.37947       .     S
C19   C21    1.37947       .     S
C22   C21    1.40597       .     S
C21   C22    1.40597       .     S
C25   C21    1.50436       .     S
C21   C25    1.50436       .     S
C23   C22    1.39967       .     S
C22   C23    1.39967       .     S
H24   C23    0.95007       .     S
C23   H24    0.95007       .     S
H27   C26    0.99003       .     S
C26   H27    0.99003       .     S
H28   C26    0.98991       .     S
C26   H28    0.98991       .     S
C29   C26    1.48640       .     S
C26   C29    1.48640       .     S
H30   C29    0.94977       .     S
C29   H30    0.94977       .     S
C31   C29    1.30627       .     S
C29   C31    1.30627       .     S
H32   C31    0.94999       .     S
C31   H32    0.94999       .     S
H33   C31    0.95018       .     S
C31   H33    0.95018       .     S
C35   C34    1.39372       .     S
C34   C35    1.39372       .     S
C41   C34    1.38471       .     S
C34   C41    1.38471       .     S
H36   C35    0.95032       .     S
C35   H36    0.95032       .     S
C37   C35    1.38393       .     S
C35   C37    1.38393       .     S
H38   C37    0.94975       .     S
C37   H38    0.94975       .     S
C39   C37    1.38295       .     S
C37   C39    1.38295       .     S
C40   C39    1.41537       .     S
C39   C40    1.41537       .     S
C43   C39    1.51219       .     S
C39   C43    1.51219       .     S
C41   C40    1.39661       .     S
C40   C41    1.39661       .     S
H42   C41    0.95004       .     S
C41   H42    0.95004       .     S
H45   C44    0.99012       .     S
C44   H45    0.99012       .     S
H46   C44    0.99005       .     S
C44   H46    0.99005       .     S
C47   C44    1.46707       .     S
C44   C47    1.46707       .     S
H48   C47    0.95023       .     S
C47   H48    0.95023       .     S
C49   C47    1.29957       .     S
C47   C49    1.29957       .     S
H50   C49    0.94991       .     S
C49   H50    0.94991       .     S
H51   C49    0.95054       .     S
C49   H51    0.95054       .     S
