data_I
_chemical_name_common  '/data/user2/wty/HOF/MOFDiff/mofdiff/data/test/254--hcof-bf3-08'
_cell_length_a 26.47960
_cell_length_b 20.48540
_cell_length_c 10.05160
_cell_angle_alpha 90.00000
_cell_angle_beta  98.55800
_cell_angle_gamma 90.00000
_space_group_name_H-M_alt      'P 1'


loop_
_space_group_symop_operation_xyz
  'x, y, z' 

loop_
_atom_site_label
_atom_site_fract_x
_atom_site_fract_y
_atom_site_fract_z
_atom_site_type_symbol
C0      0.2742    0.519    0.738     C
H1     0.29923  0.53592  0.81347     H
C2      0.2205     0.54    0.753     C
H3     0.22101  0.58438  0.78994     H
C4      0.2175    0.502    0.714     C
H5     0.18979  0.47613  0.66278     H
H6     0.20982  0.54875  0.69146     H
C7      0.1859   0.5376    0.617     C
H8     0.20259  0.51109  0.55393     H
H9     0.18204  0.58252  0.58071     H
S10     0.1266   0.5062    0.624     S
C11     0.1269   0.4672    0.773     C
H12    0.11403  0.46168  0.84263     H
H13    0.20688  0.50993  0.81663     H
H14    0.15585  0.48315  0.83938     H
C15     0.2146   0.4933    0.863     C
H16    0.19149  0.52625  0.89358     H
H17     0.2489  0.49853  0.91671     H
S18     0.1919    0.417    0.883     S
C19     0.1268    0.416    0.855     C
S20      0.099    0.357    0.865     S
C21     0.1066   0.3855     0.97     C
S22      0.056   0.3552    0.039     S
C23     0.0497   0.2731    0.009     C
C24     0.1166    0.314    0.012     C
H25    0.10311  0.26975  0.98811     H
H26    0.15413  0.30998  0.01668     H
C27      0.132   0.3958    0.753     C
H28    0.16847    0.383  0.76942     H
H29    0.11761  0.38375  0.66006     H
H30    0.11469  0.39179  0.77103     H
H31    0.09484  0.47652  0.80934     H
H32    0.27723  0.47111  0.73389     H
C33     0.2661   0.4855    0.661     C
O34      0.348   0.2154   0.6122     O
C35    0.41674  0.51536   0.6052     C
O36     0.2935   0.2681   0.2228     O
C37    0.34028    0.597   0.4794     C
C38        0.5    0.373     0.75     C
H39        0.5  0.32663     0.75     H
C40    0.42049  0.36629    0.585     C
C41        0.5   0.5061     0.75     C
H42        0.5  0.55244     0.75     H
O43     0.2995   0.6401   0.2738     O
C44    0.45949  0.47396   0.6738     C
C45    0.45975  0.40566   0.6705     C
C46      0.346   0.2889   0.4305     C
C47    0.40229  0.38355   0.4522     C
H48    0.41453  0.42156  0.41325     H
C49     0.3295   0.5514   0.5743     C
C50    0.40224  0.30941    0.637     C
H51    0.41535  0.29674  0.72643     H
C52     0.3687   0.5099    0.634     C
H53    0.36128  0.47742  0.69576     H
O54     0.2822   0.5517   0.6011     O
C55     0.3883   0.6004   0.4508     C
H56    0.39555   0.6303  0.38387     H
C57     0.3002   0.6389   0.3999     C
C58     0.3657   0.2709   0.5625     C
N59     0.2711   0.6746   0.4583     N
H60    0.24946   0.7014  0.41089     H
H61    0.27248  0.67264  0.54624     H
C62     0.3049   0.2527   0.3396     C
C63    0.42739   0.5621   0.5149     C
H64    0.46133  0.56794  0.49695     H
C65    0.36619   0.3442   0.3789     C
H66    0.35448  0.35565  0.28795     H
N67     0.2811   0.2047   0.3894     N
H68    0.25669  0.18347  0.33789     H
H69    0.28946  0.19357  0.47438     H
C70     0.3481   0.2113    0.759     C
H71    0.34599   0.2564  0.79265     H
H72    0.31626  0.18879  0.77307     H
C73     0.3752   0.1891   0.7309     C
H74    0.41099  0.20441  0.73991     H
H75    0.37562  0.14094  0.72197     H
C76     0.3904   0.1789   0.8438     C
H77    0.42325   0.1989  0.82945     H
H78    0.39129  0.13207  0.81986     H
C79     0.3545   0.2058   0.8567     C
H80    0.26011  0.45142  0.59036     H
H81    0.29262  0.46995  0.73401     H
loop_
_geom_bond_atom_site_label_1
_geom_bond_atom_site_label_2
_geom_bond_distance
_geom_bond_site_symmetry_2
_ccdc_geom_bond_type
H61   O54    2.54285       .     S
O54   H61    2.54285       .     S
H69   O34    1.97049       .     S
O34   H69    1.97049       .     S
C0    H1     0.99260       .     S
H1    C0     0.99260       .     S
C0    C2     1.51445       .     S
C2    C0     1.51445       .     S
C0    C4     1.52508       .     S
C4    C0     1.52508       .     S
C0    H32    0.98569       .     S
H32   C0     0.98569       .     S
C0    C33    1.03276       .     S
C33   C0     1.03276       .     S
C0    O54    1.57287       .     S
O54   C0     1.57287       .     S
C0    H81    1.12026       .     S
H81   C0     1.12026       .     S
C2    H3     0.98137       .     S
H3    C2     0.98137       .     S
C2    C4     0.86988       .     S
C4    C2     0.86988       .     S
C2    H6     0.66534       .     S
H6    C2     0.66534       .     S
C2    C7     1.52899       .     S
C7    C2     1.52899       .     S
C2    H13    0.99360       .     S
H13   C2     0.99360       .     S
C2    C15    1.48780       .     S
C15   C2     1.48780       .     S
C4    H5     0.98584       .     S
H5    C4     0.98584       .     S
C4    H6     0.99807       .     S
H6    C4     0.99807       .     S
C4    C7     1.39278       .     S
C7    C4     1.39278       .     S
C4    H13    1.12071       .     S
H13   C4     1.12071       .     S
C4    C15    1.52150       .     S
C15   C4     1.52150       .     S
C4    C33    1.50274       .     S
C33   C4     1.50274       .     S
H6    C7     0.93404       .     S
C7    H6     0.93404       .     S
C7    H8     0.98768       .     S
H8    C7     0.98768       .     S
C7    H9     0.98954       .     S
H9    C7     0.98954       .     S
C7    S10    1.70799       .     S
S10   C7     1.70799       .     S
S10   C11    1.69643       .     S
C11   S10    1.69643       .     S
C11   H12    0.83052       .     S
H12   C11    0.83052       .     S
C11   H14    0.99367       .     S
H14   C11    0.99367       .     S
C11   C19    1.33421       .     S
C19   C11    1.33421       .     S
C11   C27    1.48529       .     S
C27   C11    1.48529       .     S
C11   H31    0.99139       .     S
H31   C11    0.99139       .     S
H12   C19    0.99647       .     S
C19   H12    0.99647       .     S
H12   H31    0.64187       .     S
H31   H12    0.64187       .     S
H13   C15    0.58884       .     S
C15   H13    0.58884       .     S
C15   H16    0.99023       .     S
H16   C15    0.99023       .     S
C15   H17    0.99092       .     S
H17   C15    0.99092       .     S
C15   S18    1.69728       .     S
S18   C15    1.69728       .     S
S18   C19    1.70493       .     S
C19   S18    1.70493       .     S
S18   C27    1.94809       .     S
C27   S18    1.94809       .     S
S18   H28    1.40093       .     S
H28   S18    1.40093       .     S
C19   S20    1.42647       .     S
S20   C19    1.42647       .     S
C19   C21    1.48212       .     S
C21   C19    1.48212       .     S
C19   C27    1.13286       .     S
C27   C19    1.13286       .     S
C19   H30    0.99027       .     S
H30   C19    0.99027       .     S
S20   C21    1.19669       .     S
C21   S20    1.19669       .     S
S20   S22    2.22473   1_556     S
S22   S20    2.22473   1_554     S
S20   C24    1.72379   1_556     S
C24   S20    1.72379   1_554     S
S20   C27    1.71915       .     S
C27   S20    1.71915       .     S
S20   H30    1.29981       .     S
H30   S20    1.29981       .     S
C21   S22    1.71410   1_556     S
S22   C21    1.71410   1_554     S
C21   C24    1.53637   1_556     S
C24   C21    1.53637   1_554     S
S22   C23    1.71243       .     S
C23   S22    1.71243       .     S
S22   C24    1.86830       .     S
C24   S22    1.86830       .     S
C24   H25    0.99068   1_554     S
H25   C24    0.99068   1_556     S
C24   H26    0.99130       .     S
H26   C24    0.99130       .     S
C27   H28    0.99053       .     S
H28   C27    0.99053       .     S
C27   H29    0.98636       .     S
H29   C27    0.98636       .     S
C27   H30    0.52384       .     S
H30   C27    0.52384       .     S
H32   C33    0.80392       .     S
C33   H32    0.80392       .     S
H32   H81    0.40804       .     S
H81   H32    0.40804       .     S
C33   O54    1.56836       .     S
O54   C33    1.56836       .     S
C33   H80    0.99157       .     S
H80   C33    0.99157       .     S
C33   H81    0.98985       .     S
H81   C33    0.98985       .     S
O34   C58    1.35335       .     S
C58   O34    1.35335       .     S
O34   C70    1.47757       .     S
C70   O34    1.47757       .     S
O34   C73    1.40599       .     S
C73   O34    1.40599       .     S
C35   C44    1.49795       .     S
C44   C35    1.49795       .     S
C35   C52    1.35059       .     S
C52   C35    1.35059       .     S
C35   C63    1.37708       .     S
C63   C35    1.37708       .     S
O36   C62    1.20976       .     S
C62   O36    1.20976       .     S
C37   C49    1.39465       .     S
C49   C37    1.39465       .     S
C37   C55    1.34652       .     S
C55   C37    1.34652       .     S
C37   C57    1.49975       .     S
C57   C37    1.49975       .     S
C38   H39    0.94991       .     S
H39   C38    0.94991       .     S
C38   C45    1.40309       .     S
C45   C38    1.40309       .     S
C40   C45    1.48455       .     S
C45   C40    1.48455       .     S
C40   C47    1.39558       .     S
C47   C40    1.39558       .     S
C40   C50    1.39270       .     S
C50   C40    1.39270       .     S
C41   H42    0.94929       .     S
H42   C41    0.94929       .     S
C41   C44    1.38790       .     S
C44   C41    1.38790       .     S
O43   C57    1.26512       .     S
C57   O43    1.26512       .     S
C44   C45    1.39959       .     S
C45   C44    1.39959       .     S
C46   C58    1.40090       .     S
C58   C46    1.40090       .     S
C46   C62    1.50772       .     S
C62   C46    1.50772       .     S
C46   C65    1.38589       .     S
C65   C46    1.38589       .     S
C47   H48    0.94994       .     S
H48   C47    0.94994       .     S
C47   C65    1.37724       .     S
C65   C47    1.37724       .     S
C49   C52    1.40531       .     S
C52   C49    1.40531       .     S
C49   O54    1.31975       .     S
O54   C49    1.31975       .     S
C50   H51    0.95029       .     S
H51   C50    0.95029       .     S
C50   C58    1.37973       .     S
C58   C50    1.37973       .     S
C52   H53    0.95026       .     S
H53   C52    0.95026       .     S
C55   H56    0.95030       .     S
H56   C55    0.95030       .     S
C55   C63    1.37972       .     S
C63   C55    1.37972       .     S
C57   N59    1.26799       .     S
N59   C57    1.26799       .     S
N59   H60    0.88067       .     S
H60   N59    0.88067       .     S
N59   H61    0.88016       .     S
H61   N59    0.88016       .     S
C62   N67    1.30710       .     S
N67   C62    1.30710       .     S
C63   H64    0.95017       .     S
H64   C63    0.95017       .     S
C65   H66    0.95002       .     S
H66   C65    0.95002       .     S
N67   H68    0.88057       .     S
H68   N67    0.88057       .     S
N67   H69    0.87997       .     S
H69   N67    0.87997       .     S
C70   H71    0.98829       .     S
H71   C70    0.98829       .     S
C70   H72    0.98942       .     S
H72   C70    0.98942       .     S
C70   C73    0.92837       .     S
C73   C70    0.92837       .     S
C70   C76    1.46203       .     S
C76   C70    1.46203       .     S
C70   C79    0.97790       .     S
C79   C70    0.97790       .     S
H71   C79    1.22333       .     S
C79   H71    1.22333       .     S
H72   C79    1.26493       .     S
C79   H72    1.26493       .     S
C73   H74    0.98953       .     S
H74   C73    0.98953       .     S
C73   H75    0.99086       .     S
H75   C73    0.99086       .     S
C73   C76    1.16514       .     S
C76   C73    1.16514       .     S
C73   C79    1.49087       .     S
C79   C73    1.49087       .     S
C76   H77    0.99129       .     S
H77   C76    0.99129       .     S
C76   H78    0.99018       .     S
H78   C76    0.99018       .     S
C76   C79    1.12287       .     S
C79   C76    1.12287       .     S
O54   H61    2.54285       .     S
H61   O54    2.54285       .     S
O34   H69    1.97049       .     S
H69   O34    1.97049       .     S
H1    C0     0.99260       .     S
C0    H1     0.99260       .     S
C2    C0     1.51445       .     S
C0    C2     1.51445       .     S
C4    C0     1.52508       .     S
C0    C4     1.52508       .     S
H32   C0     0.98569       .     S
C0    H32    0.98569       .     S
C33   C0     1.03276       .     S
C0    C33    1.03276       .     S
O54   C0     1.57287       .     S
C0    O54    1.57287       .     S
H81   C0     1.12026       .     S
C0    H81    1.12026       .     S
H3    C2     0.98137       .     S
C2    H3     0.98137       .     S
C4    C2     0.86988       .     S
C2    C4     0.86988       .     S
H6    C2     0.66534       .     S
C2    H6     0.66534       .     S
C7    C2     1.52899       .     S
C2    C7     1.52899       .     S
H13   C2     0.99360       .     S
C2    H13    0.99360       .     S
C15   C2     1.48780       .     S
C2    C15    1.48780       .     S
H5    C4     0.98584       .     S
C4    H5     0.98584       .     S
H6    C4     0.99807       .     S
C4    H6     0.99807       .     S
C7    C4     1.39278       .     S
C4    C7     1.39278       .     S
H13   C4     1.12071       .     S
C4    H13    1.12071       .     S
C15   C4     1.52150       .     S
C4    C15    1.52150       .     S
C33   C4     1.50274       .     S
C4    C33    1.50274       .     S
C7    H6     0.93404       .     S
H6    C7     0.93404       .     S
H8    C7     0.98768       .     S
C7    H8     0.98768       .     S
H9    C7     0.98954       .     S
C7    H9     0.98954       .     S
S10   C7     1.70799       .     S
C7    S10    1.70799       .     S
C11   S10    1.69643       .     S
S10   C11    1.69643       .     S
H12   C11    0.83052       .     S
C11   H12    0.83052       .     S
H14   C11    0.99367       .     S
C11   H14    0.99367       .     S
C19   C11    1.33421       .     S
C11   C19    1.33421       .     S
C27   C11    1.48529       .     S
C11   C27    1.48529       .     S
H31   C11    0.99139       .     S
C11   H31    0.99139       .     S
C19   H12    0.99647       .     S
H12   C19    0.99647       .     S
H31   H12    0.64187       .     S
H12   H31    0.64187       .     S
C15   H13    0.58884       .     S
H13   C15    0.58884       .     S
H16   C15    0.99023       .     S
C15   H16    0.99023       .     S
H17   C15    0.99092       .     S
C15   H17    0.99092       .     S
S18   C15    1.69728       .     S
C15   S18    1.69728       .     S
C19   S18    1.70493       .     S
S18   C19    1.70493       .     S
C27   S18    1.94809       .     S
S18   C27    1.94809       .     S
H28   S18    1.40093       .     S
S18   H28    1.40093       .     S
S20   C19    1.42647       .     S
C19   S20    1.42647       .     S
C21   C19    1.48212       .     S
C19   C21    1.48212       .     S
C27   C19    1.13286       .     S
C19   C27    1.13286       .     S
H30   C19    0.99027       .     S
C19   H30    0.99027       .     S
C21   S20    1.19669       .     S
S20   C21    1.19669       .     S
S22   S20    2.22473   1_554     S
S20   S22    2.22473   1_556     S
C24   S20    1.72379   1_554     S
S20   C24    1.72379   1_556     S
C27   S20    1.71915       .     S
S20   C27    1.71915       .     S
H30   S20    1.29981       .     S
S20   H30    1.29981       .     S
S22   C21    1.71410   1_554     S
C21   S22    1.71410   1_556     S
C24   C21    1.53637   1_554     S
C21   C24    1.53637   1_556     S
C23   S22    1.71243       .     S
S22   C23    1.71243       .     S
C24   S22    1.86830       .     S
S22   C24    1.86830       .     S
H25   C24    0.99068   1_556     S
C24   H25    0.99068   1_554     S
H26   C24    0.99130       .     S
C24   H26    0.99130       .     S
H28   C27    0.99053       .     S
C27   H28    0.99053       .     S
H29   C27    0.98636       .     S
C27   H29    0.98636       .     S
H30   C27    0.52384       .     S
C27   H30    0.52384       .     S
C33   H32    0.80392       .     S
H32   C33    0.80392       .     S
H81   H32    0.40804       .     S
H32   H81    0.40804       .     S
O54   C33    1.56836       .     S
C33   O54    1.56836       .     S
H80   C33    0.99157       .     S
C33   H80    0.99157       .     S
H81   C33    0.98985       .     S
C33   H81    0.98985       .     S
C58   O34    1.35335       .     S
O34   C58    1.35335       .     S
C70   O34    1.47757       .     S
O34   C70    1.47757       .     S
C73   O34    1.40599       .     S
O34   C73    1.40599       .     S
C44   C35    1.49795       .     S
C35   C44    1.49795       .     S
C52   C35    1.35059       .     S
C35   C52    1.35059       .     S
C63   C35    1.37708       .     S
C35   C63    1.37708       .     S
C62   O36    1.20976       .     S
O36   C62    1.20976       .     S
C49   C37    1.39465       .     S
C37   C49    1.39465       .     S
C55   C37    1.34652       .     S
C37   C55    1.34652       .     S
C57   C37    1.49975       .     S
C37   C57    1.49975       .     S
H39   C38    0.94991       .     S
C38   H39    0.94991       .     S
C45   C38    1.40309       .     S
C38   C45    1.40309       .     S
C45   C40    1.48455       .     S
C40   C45    1.48455       .     S
C47   C40    1.39558       .     S
C40   C47    1.39558       .     S
C50   C40    1.39270       .     S
C40   C50    1.39270       .     S
H42   C41    0.94929       .     S
C41   H42    0.94929       .     S
C44   C41    1.38790       .     S
C41   C44    1.38790       .     S
C57   O43    1.26512       .     S
O43   C57    1.26512       .     S
C45   C44    1.39959       .     S
C44   C45    1.39959       .     S
C58   C46    1.40090       .     S
C46   C58    1.40090       .     S
C62   C46    1.50772       .     S
C46   C62    1.50772       .     S
C65   C46    1.38589       .     S
C46   C65    1.38589       .     S
H48   C47    0.94994       .     S
C47   H48    0.94994       .     S
C65   C47    1.37724       .     S
C47   C65    1.37724       .     S
C52   C49    1.40531       .     S
C49   C52    1.40531       .     S
O54   C49    1.31975       .     S
C49   O54    1.31975       .     S
H51   C50    0.95029       .     S
C50   H51    0.95029       .     S
C58   C50    1.37973       .     S
C50   C58    1.37973       .     S
H53   C52    0.95026       .     S
C52   H53    0.95026       .     S
H56   C55    0.95030       .     S
C55   H56    0.95030       .     S
C63   C55    1.37972       .     S
C55   C63    1.37972       .     S
N59   C57    1.26799       .     S
C57   N59    1.26799       .     S
H60   N59    0.88067       .     S
N59   H60    0.88067       .     S
H61   N59    0.88016       .     S
N59   H61    0.88016       .     S
N67   C62    1.30710       .     S
C62   N67    1.30710       .     S
H64   C63    0.95017       .     S
C63   H64    0.95017       .     S
H66   C65    0.95002       .     S
C65   H66    0.95002       .     S
H68   N67    0.88057       .     S
N67   H68    0.88057       .     S
H69   N67    0.87997       .     S
N67   H69    0.87997       .     S
H71   C70    0.98829       .     S
C70   H71    0.98829       .     S
H72   C70    0.98942       .     S
C70   H72    0.98942       .     S
C73   C70    0.92837       .     S
C70   C73    0.92837       .     S
C76   C70    1.46203       .     S
C70   C76    1.46203       .     S
C79   C70    0.97790       .     S
C70   C79    0.97790       .     S
C79   H71    1.22333       .     S
H71   C79    1.22333       .     S
C79   H72    1.26493       .     S
H72   C79    1.26493       .     S
H74   C73    0.98953       .     S
C73   H74    0.98953       .     S
H75   C73    0.99086       .     S
C73   H75    0.99086       .     S
C76   C73    1.16514       .     S
C73   C76    1.16514       .     S
C79   C73    1.49087       .     S
C73   C79    1.49087       .     S
H77   C76    0.99129       .     S
C76   H77    0.99129       .     S
H78   C76    0.99018       .     S
C76   H78    0.99018       .     S
C79   C76    1.12287       .     S
C76   C79    1.12287       .     S
