data_I
_chemical_name_common  '/data/user2/wty/HOF/MOFDiff/mofdiff/data/test/254-exp_485'
_cell_length_a 11.33200
_cell_length_b 11.42720
_cell_length_c 11.79990
_cell_angle_alpha 76.84600
_cell_angle_beta  67.79600
_cell_angle_gamma 66.28900
_space_group_name_H-M_alt      'P 1'


loop_
_space_group_symop_operation_xyz
  'x, y, z' 

loop_
_atom_site_label
_atom_site_fract_x
_atom_site_fract_y
_atom_site_fract_z
_atom_site_type_symbol
N0      0.1936   0.5482   0.9189     N
O1      0.0443   0.6388   0.0917     O
C2       0.116   0.5437   0.0326     C
H3     0.11416   0.4639  0.07224     H
C4      0.2036   0.6678   0.8502     C
H5     0.13028  0.73825  0.89285     H
H6     0.19818  0.67154  0.77016     H
H7     0.28892  0.67307  0.84205     H
C8      0.2767   0.4311   0.8565     C
H9     0.26072  0.35873  0.91119     H
H10    0.37111  0.42035  0.83225     H
H11    0.25272  0.43709  0.78499     H
loop_
_geom_bond_atom_site_label_1
_geom_bond_atom_site_label_2
_geom_bond_distance
_geom_bond_site_symmetry_2
_ccdc_geom_bond_type
N0    C2     1.29970   1_556     S
C2    N0     1.29970   1_554     S
N0    C4     1.44524       .     S
C4    N0     1.44524       .     S
N0    C8     1.45961       .     S
C8    N0     1.45961       .     S
O1    C2     1.23855       .     S
C2    O1     1.23855       .     S
C2    H3     0.92981       .     S
H3    C2     0.92981       .     S
C4    H5     0.96027       .     S
H5    C4     0.96027       .     S
C4    H6     0.95967       .     S
H6    C4     0.95967       .     S
C4    H7     0.95999       .     S
H7    C4     0.95999       .     S
C8    H9     0.96040       .     S
H9    C8     0.96040       .     S
C8    H10    0.95942       .     S
H10   C8     0.95942       .     S
C8    H11    0.96052       .     S
H11   C8     0.96052       .     S
C2    N0     1.29970   1_554     S
N0    C2     1.29970   1_556     S
C4    N0     1.44524       .     S
N0    C4     1.44524       .     S
C8    N0     1.45961       .     S
N0    C8     1.45961       .     S
C2    O1     1.23855       .     S
O1    C2     1.23855       .     S
H3    C2     0.92981       .     S
C2    H3     0.92981       .     S
H5    C4     0.96027       .     S
C4    H5     0.96027       .     S
H6    C4     0.95967       .     S
C4    H6     0.95967       .     S
H7    C4     0.95999       .     S
C4    H7     0.95999       .     S
H9    C8     0.96040       .     S
C8    H9     0.96040       .     S
H10   C8     0.95942       .     S
C8    H10    0.95942       .     S
H11   C8     0.96052       .     S
C8    H11    0.96052       .     S
