data_I
_chemical_name_common  '/data/user2/wty/HOF/MOFDiff/mofdiff/data/test/256-th5_dmf-th'
_cell_length_a 32.30020
_cell_length_b 15.42290
_cell_length_c 38.43600
_cell_angle_alpha 90.00000
_cell_angle_beta  90.00000
_cell_angle_gamma 90.00000
_space_group_name_H-M_alt      'P 1'


loop_
_space_group_symop_operation_xyz
  'x, y, z' 

loop_
_atom_site_label
_atom_site_fract_x
_atom_site_fract_y
_atom_site_fract_z
_atom_site_type_symbol
O0     0.38822   0.7316  0.71853     O
O1     0.41144   0.6225  0.66871     O
O2     0.28734   0.0811  0.91303     O
O3     0.31325   0.9704  0.86405     O
O4     0.61938   0.4034  0.92356     O
O5     0.64717   0.2896  0.87604     O
N6     0.39324   0.6275  0.75749     N
H7     0.38326  0.66174  0.77377     H
N8     0.41854   0.5184   0.7084     N
H9     0.42525  0.48117  0.69201     H
N10    0.32677   0.1838  0.88915     N
H11    0.31884  0.22102  0.90518     H
N12    0.35195    0.074  0.83987     N
H13    0.36004   0.0385  0.82328     H
N14      0.558   0.4057  0.89754     N
H15    0.54852  0.44212  0.91326     H
N16     0.5852   0.2978  0.84952     N
H17    0.59419  0.26345   0.8329     H
C18    0.44668   0.2983  0.79689     C
H19     0.4569  0.25805   0.7784     H
C20     0.4215   0.4013  0.84367     C
H21    0.41166  0.44166  0.86226     H
C22    0.41726   0.4383   0.8081     C
C23     0.4306   0.3838  0.78266     C
C24    0.42919   0.4094  0.74887     C
H25    0.43616  0.37038  0.73066     H
C26    0.41796   0.4896  0.74199     C
C27    0.40448   0.5452   0.7662     C
C28    0.40418   0.5199  0.80002     C
H29    0.39502   0.5583  0.81774     H
C30    0.39873   0.3179  0.84337     C
C31    0.41238   0.2608  0.81839     C
C32    0.39606   0.1816  0.81606     C
H33    0.40429  0.14317  0.79802     H
C34    0.36737   0.1568  0.84006     C
C35    0.35407   0.2134   0.8647     C
C36    0.36967   0.2936  0.86593     C
H37    0.35999  0.33333  0.88296     H
C38     0.4788   0.3246  0.82129     C
C39     0.5192   0.2961  0.82199     C
H40    0.52892   0.2567  0.80486     H
C41     0.5443   0.3242   0.8467     C
C42     0.5309   0.3808  0.87264     C
C43     0.4915   0.4086   0.8718     C
H44    0.48203  0.44888  0.88874     H
C45     0.4652   0.3797  0.84705     C
C46    0.39673   0.6572  0.72608     C
C47    0.40954   0.5999  0.69878     C
C48     0.3107   0.1027   0.8911     C
C49     0.3253   0.0445  0.86359     C
C50     0.5962    0.382  0.90092     C
C51     0.6127   0.3178  0.87423     C
O52    0.45626   0.3022  0.50887     O
N53     0.4241   0.2407  0.46458     N
C54     0.3998   0.3151   0.4553     C
H55    0.37306  0.31257  0.46739     H
H56    0.39513  0.31543  0.43013     H
H57    0.41449  0.36797  0.46214     H
C58     0.4496   0.2414  0.48947     C
H59    0.46502  0.18986   0.4934     H
C60     0.4174   0.1626  0.44537     C
H61    0.38765  0.14977  0.44472     H
H62    0.43208   0.1147  0.45663     H
H63     0.4277  0.16996  0.42158     H
O64    0.53242   0.5048  0.57458     O
N65    0.50954   0.6351  0.58633     N
C66     0.5206   0.6317   0.6222     C
H67    0.49543  0.62851  0.63639     H
H68    0.53621  0.68395  0.62837     H
H69    0.53769  0.58034  0.62646     H
C70     0.5155   0.5714   0.5654     C
H71    0.50648  0.57658  0.54199     H
C72     0.4871    0.714   0.5746     C
H73    0.46111  0.71939   0.5876     H
H74    0.48106  0.70935   0.5497     H
H75    0.50431  0.76525  0.57883     H
O76    0.18101   0.7092  0.45001     O
O77    0.20776   0.6036   0.3993     O
O78    0.45014   0.4137  0.65903     O
O79    0.47268   0.3029   0.6094     O
O80    0.49986   0.0411  0.45303     O
O81    0.53381   0.9242   0.4096     O
N82    0.46462   0.9364  0.47809     N
H83     0.4545  0.97337  0.49333     H
N84    0.49626   0.8226  0.43281     N
H85    0.50678  0.78448  0.41827     H
N86     0.2398   0.6976  0.47535     N
H87    0.22998  0.72968   0.4924     H
N88     0.2675    0.594  0.42601     N
H89     0.2763  0.55857  0.40967     H
N90    0.42671   0.5043  0.61792     N
H91    0.41917  0.54139  0.63411     H
N92    0.44953   0.3917  0.56933     N
H93    0.45638  0.35452  0.55294     H
C94     0.4046    0.598  0.48045     C
H95    0.41504  0.55761  0.46207     H
C96    0.37802   0.7027  0.52763     C
H97    0.36756  0.74338  0.54589     H
C98    0.36026   0.6194  0.47728     C
C99    0.33397   0.5901  0.45243     C
H100   0.34324  0.55048  0.43519     H
C101    0.2955   0.6174  0.45258     C
C102      0.28   0.6714  0.47752     C
C103   0.30601    0.699  0.50337     C
H104   0.29595  0.73563  0.52136     H
C105   0.34577   0.6741  0.50317     C
C106    0.4114   0.5665   0.5168     C
C107   0.42851   0.4895  0.52479     C
H108   0.43777  0.45071  0.50724     H
C109     0.432   0.4695  0.55962     C
C110   0.41954   0.5265  0.58521     C
C111   0.40159   0.6021  0.57553     C
H112    0.3918  0.64077  0.59291     H
C113   0.39741   0.6233  0.54208     C
C114   0.42468  0.68295  0.48047     C
C115   0.45373  0.70985  0.45607     C
H116   0.46408  0.66995  0.43937     H
C117   0.46765   0.7951  0.45611     C
C118    0.4525  0.85352  0.48055     C
C119   0.42345  0.82662  0.50494     C
H120    0.4131  0.86653  0.52164     H
C121   0.40953   0.7413   0.5049     C
C122    0.2149   0.6788   0.4501     C
C123    0.2301   0.6211   0.4242     C
C124   0.44405    0.432  0.62831     C
C125   0.45631   0.3709  0.60117     C
C126    0.4896   0.9657  0.45543     C
C127    0.5088   0.9015  0.43085     C
loop_
_geom_bond_atom_site_label_1
_geom_bond_atom_site_label_2
_geom_bond_distance
_geom_bond_site_symmetry_2
_ccdc_geom_bond_type
H9    O78    1.82647       .     S
O78   H9     1.82647       .     S
H91   O1     1.84278       .     S
O1    H91    1.84278       .     S
H93   O52    1.87626       .     S
O52   H93    1.87626       .     S
O0    C46    1.21509       .     S
C46   O0     1.21509       .     S
O1    C47    1.20874       .     S
C47   O1     1.20874       .     S
O2    C48    1.17932       .     S
C48   O2     1.17932       .     S
O3    C49    1.20743   1_565     S
C49   O3     1.20743   1_545     S
O4    C50    1.19447       .     S
C50   O4     1.19447       .     S
O5    C51    1.19734       .     S
C51   O5     1.19734       .     S
N6    H7     0.87996       .     S
H7    N6     0.87996       .     S
N6    C27    1.36199       .     S
C27   N6     1.36199       .     S
N6    C46    1.29616       .     S
C46   N6     1.29616       .     S
N8    H9     0.87951       .     S
H9    N8     0.87951       .     S
N8    C26    1.36547       .     S
C26   N8     1.36547       .     S
N8    C47    1.34208       .     S
C47   N8     1.34208       .     S
N10   H11    0.88019       .     S
H11   N10    0.88019       .     S
N10   C35    1.36716       .     S
C35   N10    1.36716       .     S
N10   C48    1.35630       .     S
C48   N10    1.35630       .     S
N12   H13    0.88014       .     S
H13   N12    0.88014       .     S
N12   C34    1.37073       .     S
C34   N12    1.37073       .     S
N12   C49    1.33386       .     S
C49   N12    1.33386       .     S
N14   H15    0.87997       .     S
H15   N14    0.87997       .     S
N14   C42    1.35264       .     S
C42   N14    1.35264       .     S
N14   C50    1.29341       .     S
C50   N14    1.29341       .     S
N16   H17    0.87924       .     S
H17   N16    0.87924       .     S
N16   C41    1.38664       .     S
C41   N16    1.38664       .     S
N16   C51    1.33648       .     S
C51   N16    1.33648       .     S
C18   H19    0.99970       .     S
H19   C18    0.99970       .     S
C18   C23    1.51914       .     S
C23   C18    1.51914       .     S
C18   C31    1.49828       .     S
C31   C18    1.49828       .     S
C18   C38    1.45617       .     S
C38   C18    1.45617       .     S
C20   H21    0.99951       .     S
H21   C20    0.99951       .     S
C20   C22    1.48780       .     S
C22   C20    1.48780       .     S
C20   C30    1.48174       .     S
C30   C20    1.48174       .     S
C20   C45    1.45611       .     S
C45   C20    1.45611       .     S
C22   C23    1.35952       .     S
C23   C22    1.35952       .     S
C22   C28    1.36337       .     S
C28   C22    1.36337       .     S
C23   C24    1.35820       .     S
C24   C23    1.35820       .     S
C24   H25    0.95012       .     S
H25   C24    0.95012       .     S
C24   C26    1.31585       .     S
C26   C24    1.31585       .     S
C26   C27    1.33821       .     S
C27   C26    1.33821       .     S
C27   C28    1.35724       .     S
C28   C27    1.35724       .     S
C28   H29    0.94982       .     S
H29   C28    0.94982       .     S
C30   C31    1.37542       .     S
C31   C30    1.37542       .     S
C30   C36    1.33169       .     S
C36   C30    1.33169       .     S
C31   C32    1.33340       .     S
C32   C31    1.33340       .     S
C32   H33    0.95013       .     S
H33   C32    0.95013       .     S
C32   C34    1.36235       .     S
C34   C32    1.36235       .     S
C34   C35    1.35775       .     S
C35   C34    1.35775       .     S
C35   C36    1.33645       .     S
C36   C35    1.33645       .     S
C36   H37    0.94957       .     S
H37   C36    0.94957       .     S
C38   C39    1.37723       .     S
C39   C38    1.37723       .     S
C38   C45    1.37675       .     S
C45   C38    1.37675       .     S
C39   H40    0.94938       .     S
H40   C39    0.94938       .     S
C39   C41    1.32180       .     S
C41   C39    1.32180       .     S
C41   C42    1.39407       .     S
C42   C41    1.39407       .     S
C42   C43    1.34330       .     S
C43   C42    1.34330       .     S
C43   H44    0.95049       .     S
H44   C43    0.95049       .     S
C43   C45    1.35102       .     S
C45   C43    1.35102       .     S
C46   C47    1.43291       .     S
C47   C46    1.43291       .     S
C48   C49    1.46497       .     S
C49   C48    1.46497       .     S
C50   C51    1.52211       .     S
C51   C50    1.52211       .     S
O52   C58    1.21720       .     S
C58   O52    1.21720       .     S
N53   C54    1.43526       .     S
C54   N53    1.43526       .     S
N53   C58    1.26244       .     S
C58   N53    1.26244       .     S
N53   C60    1.42930       .     S
C60   N53    1.42930       .     S
C54   H55    0.98156       .     S
H55   C54    0.98156       .     S
C54   H56    0.97914       .     S
H56   C54    0.97914       .     S
C54   H57    0.97936       .     S
H57   C54    0.97936       .     S
C58   H59    0.95013       .     S
H59   C58    0.95013       .     S
C60   H61    0.98141       .     S
H61   C60    0.98141       .     S
C60   H62    0.97872       .     S
H62   C60    0.97872       .     S
C60   H63    0.97963       .     S
H63   C60    0.97963       .     S
O64   C70    1.21583       .     S
C70   O64    1.21583       .     S
N65   C66    1.42520       .     S
C66   N65    1.42520       .     S
N65   C70    1.28429       .     S
C70   N65    1.28429       .     S
N65   C72    1.48640       .     S
C72   N65    1.48640       .     S
C66   H67    0.98023       .     S
H67   C66    0.98023       .     S
C66   H68    0.97972       .     S
H68   C66    0.97972       .     S
C66   H69    0.97927       .     S
H69   C66    0.97927       .     S
C70   H71    0.94915       .     S
H71   C70    0.94915       .     S
C72   H73    0.98046       .     S
H73   C72    0.98046       .     S
C72   H74    0.97937       .     S
H74   C72    0.97937       .     S
C72   H75    0.97991       .     S
H75   C72    0.97991       .     S
O76   C122   1.19084       .     S
C122  O76    1.19084       .     S
O77   C123   1.22861       .     S
C123  O77    1.22861       .     S
O78   C124   1.22985       .     S
C124  O78    1.22985       .     S
O79   C125   1.21636       .     S
C125  O79    1.21636       .     S
O80   C126   1.21270   1_545     S
C126  O80    1.21270   1_565     S
O81   C127   1.20094       .     S
C127  O81    1.20094       .     S
N82   H83    0.88039       .     S
H83   N82    0.88039       .     S
N82   C118   1.34019       .     S
C118  N82    1.34019       .     S
N82   C126   1.27035       .     S
C126  N82    1.27035       .     S
N84   H85    0.87946       .     S
H85   N84    0.87946       .     S
N84   C117   1.35495       .     S
C117  N84    1.35495       .     S
N84   C127   1.28472       .     S
C127  N84    1.28472       .     S
N86   H87    0.88026       .     S
H87   N86    0.88026       .     S
N86   C102   1.36245       .     S
C102  N86    1.36245       .     S
N86   C122   1.29337       .     S
C122  N86    1.29337       .     S
N88   H89    0.87967       .     S
H89   N88    0.87967       .     S
N88   C101   1.41108       .     S
C101  N88    1.41108       .     S
N88   C123   1.28018       .     S
C123  N88    1.28018       .     S
N90   H91    0.87964       .     S
H91   N90    0.87964       .     S
N90   C110   1.32345       .     S
C110  N90    1.32345       .     S
N90   C124   1.31018       .     S
C124  N90    1.31018       .     S
N92   H93    0.88013       .     S
H93   N92    0.88013       .     S
N92   C109   1.37828       .     S
C109  N92    1.37828       .     S
N92   C125   1.28396       .     S
C125  N92    1.28396       .     S
C94   H95    1.00042       .     S
H95   C94    1.00042       .     S
C94   C98    1.47477       .     S
C98   C94    1.47477       .     S
C94   C106   1.49542       .     S
C106  C94    1.49542       .     S
C94   C114   1.46193       .     S
C114  C94    1.46193       .     S
C96   H97    1.00018       .     S
H97   C96    1.00018       .     S
C96   C105   1.47090       .     S
C105  C96    1.47090       .     S
C96   C113   1.48335       .     S
C113  C96    1.48335       .     S
C96   C121   1.46750       .     S
C121  C96    1.46750       .     S
C98   C99    1.35557       .     S
C99   C98    1.35557       .     S
C98   C105   1.38600       .     S
C105  C98    1.38600       .     S
C99   H100   0.94981       .     S
H100  C99    0.94981       .     S
C99   C101   1.31200       .     S
C101  C99    1.31200       .     S
C101  C102   1.36498       .     S
C102  C101   1.36498       .     S
C102  C103   1.36901       .     S
C103  C102   1.36901       .     S
C103  H104   0.95019       .     S
H104  C103   0.95019       .     S
C103  C105   1.34047       .     S
C105  C103   1.34047       .     S
C106  C107   1.34538       .     S
C107  C106   1.34538       .     S
C106  C113   1.38410       .     S
C113  C106   1.38410       .     S
C107  H108   0.94994       .     S
H108  C107   0.94994       .     S
C107  C109   1.37842       .     S
C109  C107   1.37842       .     S
C109  C110   1.37921       .     S
C110  C109   1.37921       .     S
C110  C111   1.35428       .     S
C111  C110   1.35428       .     S
C111  H112   0.94970       .     S
H112  C111   0.94970       .     S
C111  C113   1.33346       .     S
C113  C111   1.33346       .     S
C114  C115   1.39000       .     S
C115  C114   1.39000       .     S
C114  C121   1.38962       .     S
C121  C114   1.38962       .     S
C115  H116   0.94998       .     S
H116  C115   0.94998       .     S
C115  C117   1.38956       .     S
C117  C115   1.38956       .     S
C117  C118   1.39057       .     S
C118  C117   1.39057       .     S
C118  C119   1.38974       .     S
C119  C118   1.38974       .     S
C119  H120   0.95008       .     S
H120  C119   0.95008       .     S
C119  C121   1.39058       .     S
C121  C119   1.39058       .     S
C122  C123   1.42266       .     S
C123  C122   1.42266       .     S
C124  C125   1.46048       .     S
C125  C124   1.46048       .     S
C126  C127   1.50252       .     S
C127  C126   1.50252       .     S
O78   H9     1.82647       .     S
H9    O78    1.82647       .     S
O1    H91    1.84278       .     S
H91   O1     1.84278       .     S
O52   H93    1.87626       .     S
H93   O52    1.87626       .     S
C46   O0     1.21509       .     S
O0    C46    1.21509       .     S
C47   O1     1.20874       .     S
O1    C47    1.20874       .     S
C48   O2     1.17932       .     S
O2    C48    1.17932       .     S
C49   O3     1.20743   1_545     S
O3    C49    1.20743   1_565     S
C50   O4     1.19447       .     S
O4    C50    1.19447       .     S
C51   O5     1.19734       .     S
O5    C51    1.19734       .     S
H7    N6     0.87996       .     S
N6    H7     0.87996       .     S
C27   N6     1.36199       .     S
N6    C27    1.36199       .     S
C46   N6     1.29616       .     S
N6    C46    1.29616       .     S
H9    N8     0.87951       .     S
N8    H9     0.87951       .     S
C26   N8     1.36547       .     S
N8    C26    1.36547       .     S
C47   N8     1.34208       .     S
N8    C47    1.34208       .     S
H11   N10    0.88019       .     S
N10   H11    0.88019       .     S
C35   N10    1.36716       .     S
N10   C35    1.36716       .     S
C48   N10    1.35630       .     S
N10   C48    1.35630       .     S
H13   N12    0.88014       .     S
N12   H13    0.88014       .     S
C34   N12    1.37073       .     S
N12   C34    1.37073       .     S
C49   N12    1.33386       .     S
N12   C49    1.33386       .     S
H15   N14    0.87997       .     S
N14   H15    0.87997       .     S
C42   N14    1.35264       .     S
N14   C42    1.35264       .     S
C50   N14    1.29341       .     S
N14   C50    1.29341       .     S
H17   N16    0.87924       .     S
N16   H17    0.87924       .     S
C41   N16    1.38664       .     S
N16   C41    1.38664       .     S
C51   N16    1.33648       .     S
N16   C51    1.33648       .     S
H19   C18    0.99970       .     S
C18   H19    0.99970       .     S
C23   C18    1.51914       .     S
C18   C23    1.51914       .     S
C31   C18    1.49828       .     S
C18   C31    1.49828       .     S
C38   C18    1.45617       .     S
C18   C38    1.45617       .     S
H21   C20    0.99951       .     S
C20   H21    0.99951       .     S
C22   C20    1.48780       .     S
C20   C22    1.48780       .     S
C30   C20    1.48174       .     S
C20   C30    1.48174       .     S
C45   C20    1.45611       .     S
C20   C45    1.45611       .     S
C23   C22    1.35952       .     S
C22   C23    1.35952       .     S
C28   C22    1.36337       .     S
C22   C28    1.36337       .     S
C24   C23    1.35820       .     S
C23   C24    1.35820       .     S
H25   C24    0.95012       .     S
C24   H25    0.95012       .     S
C26   C24    1.31585       .     S
C24   C26    1.31585       .     S
C27   C26    1.33821       .     S
C26   C27    1.33821       .     S
C28   C27    1.35724       .     S
C27   C28    1.35724       .     S
H29   C28    0.94982       .     S
C28   H29    0.94982       .     S
C31   C30    1.37542       .     S
C30   C31    1.37542       .     S
C36   C30    1.33169       .     S
C30   C36    1.33169       .     S
C32   C31    1.33340       .     S
C31   C32    1.33340       .     S
H33   C32    0.95013       .     S
C32   H33    0.95013       .     S
C34   C32    1.36235       .     S
C32   C34    1.36235       .     S
C35   C34    1.35775       .     S
C34   C35    1.35775       .     S
C36   C35    1.33645       .     S
C35   C36    1.33645       .     S
H37   C36    0.94957       .     S
C36   H37    0.94957       .     S
C39   C38    1.37723       .     S
C38   C39    1.37723       .     S
C45   C38    1.37675       .     S
C38   C45    1.37675       .     S
H40   C39    0.94938       .     S
C39   H40    0.94938       .     S
C41   C39    1.32180       .     S
C39   C41    1.32180       .     S
C42   C41    1.39407       .     S
C41   C42    1.39407       .     S
C43   C42    1.34330       .     S
C42   C43    1.34330       .     S
H44   C43    0.95049       .     S
C43   H44    0.95049       .     S
C45   C43    1.35102       .     S
C43   C45    1.35102       .     S
C47   C46    1.43291       .     S
C46   C47    1.43291       .     S
C49   C48    1.46497       .     S
C48   C49    1.46497       .     S
C51   C50    1.52211       .     S
C50   C51    1.52211       .     S
C58   O52    1.21720       .     S
O52   C58    1.21720       .     S
C54   N53    1.43526       .     S
N53   C54    1.43526       .     S
C58   N53    1.26244       .     S
N53   C58    1.26244       .     S
C60   N53    1.42930       .     S
N53   C60    1.42930       .     S
H55   C54    0.98156       .     S
C54   H55    0.98156       .     S
H56   C54    0.97914       .     S
C54   H56    0.97914       .     S
H57   C54    0.97936       .     S
C54   H57    0.97936       .     S
H59   C58    0.95013       .     S
C58   H59    0.95013       .     S
H61   C60    0.98141       .     S
C60   H61    0.98141       .     S
H62   C60    0.97872       .     S
C60   H62    0.97872       .     S
H63   C60    0.97963       .     S
C60   H63    0.97963       .     S
C70   O64    1.21583       .     S
O64   C70    1.21583       .     S
C66   N65    1.42520       .     S
N65   C66    1.42520       .     S
C70   N65    1.28429       .     S
N65   C70    1.28429       .     S
C72   N65    1.48640       .     S
N65   C72    1.48640       .     S
H67   C66    0.98023       .     S
C66   H67    0.98023       .     S
H68   C66    0.97972       .     S
C66   H68    0.97972       .     S
H69   C66    0.97927       .     S
C66   H69    0.97927       .     S
H71   C70    0.94915       .     S
C70   H71    0.94915       .     S
H73   C72    0.98046       .     S
C72   H73    0.98046       .     S
H74   C72    0.97937       .     S
C72   H74    0.97937       .     S
H75   C72    0.97991       .     S
C72   H75    0.97991       .     S
C122  O76    1.19084       .     S
O76   C122   1.19084       .     S
C123  O77    1.22861       .     S
O77   C123   1.22861       .     S
C124  O78    1.22985       .     S
O78   C124   1.22985       .     S
C125  O79    1.21636       .     S
O79   C125   1.21636       .     S
C126  O80    1.21270   1_565     S
O80   C126   1.21270   1_545     S
C127  O81    1.20094       .     S
O81   C127   1.20094       .     S
H83   N82    0.88039       .     S
N82   H83    0.88039       .     S
C118  N82    1.34019       .     S
N82   C118   1.34019       .     S
C126  N82    1.27035       .     S
N82   C126   1.27035       .     S
H85   N84    0.87946       .     S
N84   H85    0.87946       .     S
C117  N84    1.35495       .     S
N84   C117   1.35495       .     S
C127  N84    1.28472       .     S
N84   C127   1.28472       .     S
H87   N86    0.88026       .     S
N86   H87    0.88026       .     S
C102  N86    1.36245       .     S
N86   C102   1.36245       .     S
C122  N86    1.29337       .     S
N86   C122   1.29337       .     S
H89   N88    0.87967       .     S
N88   H89    0.87967       .     S
C101  N88    1.41108       .     S
N88   C101   1.41108       .     S
C123  N88    1.28018       .     S
N88   C123   1.28018       .     S
H91   N90    0.87964       .     S
N90   H91    0.87964       .     S
C110  N90    1.32345       .     S
N90   C110   1.32345       .     S
C124  N90    1.31018       .     S
N90   C124   1.31018       .     S
H93   N92    0.88013       .     S
N92   H93    0.88013       .     S
C109  N92    1.37828       .     S
N92   C109   1.37828       .     S
C125  N92    1.28396       .     S
N92   C125   1.28396       .     S
H95   C94    1.00042       .     S
C94   H95    1.00042       .     S
C98   C94    1.47477       .     S
C94   C98    1.47477       .     S
C106  C94    1.49542       .     S
C94   C106   1.49542       .     S
C114  C94    1.46193       .     S
C94   C114   1.46193       .     S
H97   C96    1.00018       .     S
C96   H97    1.00018       .     S
C105  C96    1.47090       .     S
C96   C105   1.47090       .     S
C113  C96    1.48335       .     S
C96   C113   1.48335       .     S
C121  C96    1.46750       .     S
C96   C121   1.46750       .     S
C99   C98    1.35557       .     S
C98   C99    1.35557       .     S
C105  C98    1.38600       .     S
C98   C105   1.38600       .     S
H100  C99    0.94981       .     S
C99   H100   0.94981       .     S
C101  C99    1.31200       .     S
C99   C101   1.31200       .     S
C102  C101   1.36498       .     S
C101  C102   1.36498       .     S
C103  C102   1.36901       .     S
C102  C103   1.36901       .     S
H104  C103   0.95019       .     S
C103  H104   0.95019       .     S
C105  C103   1.34047       .     S
C103  C105   1.34047       .     S
C107  C106   1.34538       .     S
C106  C107   1.34538       .     S
C113  C106   1.38410       .     S
C106  C113   1.38410       .     S
H108  C107   0.94994       .     S
C107  H108   0.94994       .     S
C109  C107   1.37842       .     S
C107  C109   1.37842       .     S
C110  C109   1.37921       .     S
C109  C110   1.37921       .     S
C111  C110   1.35428       .     S
C110  C111   1.35428       .     S
H112  C111   0.94970       .     S
C111  H112   0.94970       .     S
C113  C111   1.33346       .     S
C111  C113   1.33346       .     S
C115  C114   1.39000       .     S
C114  C115   1.39000       .     S
C121  C114   1.38962       .     S
C114  C121   1.38962       .     S
H116  C115   0.94998       .     S
C115  H116   0.94998       .     S
C117  C115   1.38956       .     S
C115  C117   1.38956       .     S
C118  C117   1.39057       .     S
C117  C118   1.39057       .     S
C119  C118   1.38974       .     S
C118  C119   1.38974       .     S
H120  C119   0.95008       .     S
C119  H120   0.95008       .     S
C121  C119   1.39058       .     S
C119  C121   1.39058       .     S
C123  C122   1.42266       .     S
C122  C123   1.42266       .     S
C125  C124   1.46048       .     S
C124  C125   1.46048       .     S
C127  C126   1.50252       .     S
C126  C127   1.50252       .     S
