data_I
_chemical_name_common  '/data/user2/wty/HOF/MOFDiff/mofdiff/data/test/256-th5_dmso'
_cell_length_a 13.06350
_cell_length_b 19.11800
_cell_length_c 16.47100
_cell_angle_alpha 90.00000
_cell_angle_beta  90.00000
_cell_angle_gamma 90.00000
_space_group_name_H-M_alt      'P 1'


loop_
_space_group_symop_operation_xyz
  'x, y, z' 

loop_
_atom_site_label
_atom_site_fract_x
_atom_site_fract_y
_atom_site_fract_z
_atom_site_type_symbol
O0      0.5269   0.3015   0.4543     O
S1      0.6822   0.3596   0.4842     S
O2      0.5724   0.3374    0.463     O
S3      0.6402  0.29428  0.47074     S
C4       0.678   0.3618   0.4075     C
H5     0.74695  0.35174  0.38615     H
H6     0.68007  0.40566   0.4382     H
H7     0.63007  0.36611  0.36231     H
S8      0.7005   0.3209   0.4693     S
C9      0.6025   0.3826    0.441     C
H10    0.58815  0.37848  0.38319     H
H11    0.62596  0.43014  0.45351     H
H12    0.54002  0.37272  0.47229     H
S13       0.62   0.3495   0.4531     S
C14     0.6809   0.3172   0.5727     C
H15    0.65359  0.36336  0.58704     H
H16     0.7558   0.3184  0.57502     H
H17    0.65514  0.28229  0.61121     H
O18     0.7284   0.2515   0.4363     O
C19      0.732    0.283   0.4322     C
H20    0.73422  0.27141  0.37418     H
H21    0.72057  0.23991  0.46355     H
H22    0.79746  0.30376  0.44844     H
O23    0.70585  0.06144  0.36715     O
O24    0.87821  0.06901  0.46018     O
O25    0.42127  0.59025  0.69607     O
N26    0.41618  0.47123  0.70104     N
H27    0.36115  0.47043  0.67025     H
N28    0.61086  0.10098  0.47368     N
H29    0.55454  0.09926  0.44443     H
N30    0.78277  0.10147   0.5688     N
H31    0.83662  0.09909  0.60079     H
C32    0.45483  0.53444  0.72095     C
C33    0.45642  0.40747  0.72534     C
C34    0.41134  0.34431  0.70081     C
H35    0.35175  0.34416  0.66775     H
C36    0.45545  0.28258  0.72578     C
C37    0.41752  0.20892  0.70514     C
H38    0.35417  0.20877  0.67106     H
C39    0.50816  0.17426  0.66413     C
C40    0.51056  0.14955  0.58527     C
H41    0.45043  0.14969  0.55283     H
C42    0.60339  0.12423  0.55395     C
C43    0.69049  0.12341  0.60261     C
C44    0.68795  0.14827  0.68284     C
H45    0.74769  0.14742   0.7157     H
C46    0.59692  0.17389  0.71281     C
C47     0.6993  0.08104  0.43851     C
C48     0.7949  0.08366  0.49027     C
loop_
_geom_bond_atom_site_label_1
_geom_bond_atom_site_label_2
_geom_bond_distance
_geom_bond_site_symmetry_2
_ccdc_geom_bond_type
O0    O2     0.91918       .     S
O2    O0     0.91918       .     S
O0    S3     1.51098       .     S
S3    O0     1.51098       .     S
O0    S13    1.52370       .     S
S13   O0     1.52370       .     S
S1    O2     1.53606       .     S
O2    S1     1.53606       .     S
S1    S3     1.38190       .     S
S3    S1     1.38190       .     S
S1    C4     1.26522       .     S
C4    S1     1.26522       .     S
S1    H6     1.16200       .     S
H6    S1     1.16200       .     S
S1    S8     0.81534       .     S
S8    S1     0.81534       .     S
S1    C9     1.33554       .     S
C9    S1     1.33554       .     S
S1    S13    0.97976       .     S
S13   S1     0.97976       .     S
S1    C14    1.66800       .     S
C14   S1     1.66800       .     S
S1    C19    1.81697       .     S
C19   S1     1.81697       .     S
O2    S3     1.21668       .     S
S3    O2     1.21668       .     S
O2    S8     1.70607       .     S
S8    O2     1.70607       .     S
O2    C9     1.01619       .     S
C9    O2     1.01619       .     S
O2    H12    0.81136       .     S
H12   O2     0.81136       .     S
O2    S13    0.68320       .     S
S13   O2     0.68320       .     S
S3    C4     1.73064       .     S
C4    S3     1.73064       .     S
S3    S8     0.93813       .     S
S8    S3     0.93813       .     S
S3    C9     1.82580       .     S
C9    S3     1.82580       .     S
S3    S13    1.12630       .     S
S13   S3     1.12630       .     S
S3    C14    1.81522       .     S
C14   S3     1.81522       .     S
S3    O18    1.52258       .     S
O18   S3     1.52258       .     S
S3    C19    1.37390       .     S
C19   S3     1.37390       .     S
S3    H21    1.48216       .     S
H21   S3     1.48216       .     S
C4    H5     0.98588       .     S
H5    C4     0.98588       .     S
C4    H6     0.97956       .     S
H6    C4     0.97956       .     S
C4    H7     0.97614       .     S
H7    C4     0.97614       .     S
C4    S8     1.31679       .     S
S8    C4     1.31679       .     S
C4    C9     1.19807       .     S
C9    C4     1.19807       .     S
C4    H10    1.28051       .     S
H10   C4     1.28051       .     S
C4    S13    1.09247       .     S
S13   C4     1.09247       .     S
C4    C19    1.71251       .     S
C19   C4     1.71251       .     S
H6    C9     1.10604       .     S
C9    H6     1.10604       .     S
H6    S13    1.35232       .     S
S13   H6     1.35232       .     S
H7    H10    0.68854       .     S
H10   H7     0.68854       .     S
S8    C9     1.80213       .     S
C9    S8     1.80213       .     S
S8    S13    1.21493       .     S
S13   S8     1.21493       .     S
S8    C14    1.72369       .     S
C14   S8     1.72369       .     S
S8    O18    1.47941       .     S
O18   S8     1.47941       .     S
S8    C19    1.03332       .     S
C19   S8     1.03332       .     S
S8    H22    1.35270       .     S
H22   S8     1.35270       .     S
C9    H10    0.97366       .     S
H10   C9     0.97366       .     S
C9    H11    0.98103       .     S
H11   C9     0.98103       .     S
C9    H12    0.98361       .     S
H12   C9     0.98361       .     S
C9    S13    0.70173       .     S
S13   C9     0.70173       .     S
H10   S13    1.34387       .     S
S13   H10    1.34387       .     S
H12   S13    1.17840       .     S
S13   H12    1.17840       .     S
S13   C19    1.96864       .     S
C19   S13    1.96864       .     S
C14   H15    0.98074       .     S
H15   C14    0.98074       .     S
C14   H16    0.97947       .     S
H16   C14    0.97947       .     S
C14   H17    0.98031       .     S
H17   C14    0.98031       .     S
O18   C19    0.60781       .     S
C19   O18    0.60781       .     S
O18   H20    1.09433       .     S
H20   O18    1.09433       .     S
O18   H21    0.51089       .     S
H21   O18    0.51089       .     S
C19   H20    0.98143       .     S
H20   C19    0.98143       .     S
C19   H21    0.98365       .     S
H21   C19    0.98365       .     S
C19   H22    0.97997       .     S
H22   C19    0.97997       .     S
O23   C47    1.23662       .     S
C47   O23    1.23662       .     S
O24   C48    1.22822       .     S
C48   O24    1.22822       .     S
O25   C32    1.22416       .     S
C32   O25    1.22416       .     S
N26   H27    0.87990       .     S
H27   N26    0.87990       .     S
N26   C32    1.35012       .     S
C32   N26    1.35012       .     S
N26   C33    1.38651       .     S
C33   N26    1.38651       .     S
N28   H29    0.88006       .     S
H29   N28    0.88006       .     S
N28   C42    1.39826       .     S
C42   N28    1.39826       .     S
N28   C47    1.34748       .     S
C47   N28    1.34748       .     S
N30   H31    0.88010       .     S
H31   N30    0.88010       .     S
N30   C43    1.39258       .     S
C43   N30    1.39258       .     S
N30   C48    1.34689       .     S
C48   N30    1.34689       .     S
C33   C34    1.40289       .     S
C34   C33    1.40289       .     S
C34   H35    0.95001       .     S
H35   C34    0.95001       .     S
C34   C36    1.37621       .     S
C36   C34    1.37621       .     S
C36   C37    1.53108       .     S
C37   C36    1.53108       .     S
C37   H38    0.99999       .     S
H38   C37    0.99999       .     S
C37   C39    1.51571       .     S
C39   C37    1.51571       .     S
C39   C40    1.38250       .     S
C40   C39    1.38250       .     S
C39   C46    1.40976       .     S
C46   C39    1.40976       .     S
C40   H41    0.95001       .     S
H41   C40    0.95001       .     S
C40   C42    1.40394       .     S
C42   C40    1.40394       .     S
C42   C43    1.39186       .     S
C43   C42    1.39186       .     S
C43   C44    1.40473       .     S
C44   C43    1.40473       .     S
C44   H45    0.94987       .     S
H45   C44    0.94987       .     S
C44   C46    1.37757       .     S
C46   C44    1.37757       .     S
C47   C48    1.51295       .     S
C48   C47    1.51295       .     S
O2    O0     0.91918       .     S
O0    O2     0.91918       .     S
S3    O0     1.51098       .     S
O0    S3     1.51098       .     S
S13   O0     1.52370       .     S
O0    S13    1.52370       .     S
O2    S1     1.53606       .     S
S1    O2     1.53606       .     S
S3    S1     1.38190       .     S
S1    S3     1.38190       .     S
C4    S1     1.26522       .     S
S1    C4     1.26522       .     S
H6    S1     1.16200       .     S
S1    H6     1.16200       .     S
S8    S1     0.81534       .     S
S1    S8     0.81534       .     S
C9    S1     1.33554       .     S
S1    C9     1.33554       .     S
S13   S1     0.97976       .     S
S1    S13    0.97976       .     S
C14   S1     1.66800       .     S
S1    C14    1.66800       .     S
C19   S1     1.81697       .     S
S1    C19    1.81697       .     S
S3    O2     1.21668       .     S
O2    S3     1.21668       .     S
S8    O2     1.70607       .     S
O2    S8     1.70607       .     S
C9    O2     1.01619       .     S
O2    C9     1.01619       .     S
H12   O2     0.81136       .     S
O2    H12    0.81136       .     S
S13   O2     0.68320       .     S
O2    S13    0.68320       .     S
C4    S3     1.73064       .     S
S3    C4     1.73064       .     S
S8    S3     0.93813       .     S
S3    S8     0.93813       .     S
C9    S3     1.82580       .     S
S3    C9     1.82580       .     S
S13   S3     1.12630       .     S
S3    S13    1.12630       .     S
C14   S3     1.81522       .     S
S3    C14    1.81522       .     S
O18   S3     1.52258       .     S
S3    O18    1.52258       .     S
C19   S3     1.37390       .     S
S3    C19    1.37390       .     S
H21   S3     1.48216       .     S
S3    H21    1.48216       .     S
H5    C4     0.98588       .     S
C4    H5     0.98588       .     S
H6    C4     0.97956       .     S
C4    H6     0.97956       .     S
H7    C4     0.97614       .     S
C4    H7     0.97614       .     S
S8    C4     1.31679       .     S
C4    S8     1.31679       .     S
C9    C4     1.19807       .     S
C4    C9     1.19807       .     S
H10   C4     1.28051       .     S
C4    H10    1.28051       .     S
S13   C4     1.09247       .     S
C4    S13    1.09247       .     S
C19   C4     1.71251       .     S
C4    C19    1.71251       .     S
C9    H6     1.10604       .     S
H6    C9     1.10604       .     S
S13   H6     1.35232       .     S
H6    S13    1.35232       .     S
H10   H7     0.68854       .     S
H7    H10    0.68854       .     S
C9    S8     1.80213       .     S
S8    C9     1.80213       .     S
S13   S8     1.21493       .     S
S8    S13    1.21493       .     S
C14   S8     1.72369       .     S
S8    C14    1.72369       .     S
O18   S8     1.47941       .     S
S8    O18    1.47941       .     S
C19   S8     1.03332       .     S
S8    C19    1.03332       .     S
H22   S8     1.35270       .     S
S8    H22    1.35270       .     S
H10   C9     0.97366       .     S
C9    H10    0.97366       .     S
H11   C9     0.98103       .     S
C9    H11    0.98103       .     S
H12   C9     0.98361       .     S
C9    H12    0.98361       .     S
S13   C9     0.70173       .     S
C9    S13    0.70173       .     S
S13   H10    1.34387       .     S
H10   S13    1.34387       .     S
S13   H12    1.17840       .     S
H12   S13    1.17840       .     S
C19   S13    1.96864       .     S
S13   C19    1.96864       .     S
H15   C14    0.98074       .     S
C14   H15    0.98074       .     S
H16   C14    0.97947       .     S
C14   H16    0.97947       .     S
H17   C14    0.98031       .     S
C14   H17    0.98031       .     S
C19   O18    0.60781       .     S
O18   C19    0.60781       .     S
H20   O18    1.09433       .     S
O18   H20    1.09433       .     S
H21   O18    0.51089       .     S
O18   H21    0.51089       .     S
H20   C19    0.98143       .     S
C19   H20    0.98143       .     S
H21   C19    0.98365       .     S
C19   H21    0.98365       .     S
H22   C19    0.97997       .     S
C19   H22    0.97997       .     S
C47   O23    1.23662       .     S
O23   C47    1.23662       .     S
C48   O24    1.22822       .     S
O24   C48    1.22822       .     S
C32   O25    1.22416       .     S
O25   C32    1.22416       .     S
H27   N26    0.87990       .     S
N26   H27    0.87990       .     S
C32   N26    1.35012       .     S
N26   C32    1.35012       .     S
C33   N26    1.38651       .     S
N26   C33    1.38651       .     S
H29   N28    0.88006       .     S
N28   H29    0.88006       .     S
C42   N28    1.39826       .     S
N28   C42    1.39826       .     S
C47   N28    1.34748       .     S
N28   C47    1.34748       .     S
H31   N30    0.88010       .     S
N30   H31    0.88010       .     S
C43   N30    1.39258       .     S
N30   C43    1.39258       .     S
C48   N30    1.34689       .     S
N30   C48    1.34689       .     S
C34   C33    1.40289       .     S
C33   C34    1.40289       .     S
H35   C34    0.95001       .     S
C34   H35    0.95001       .     S
C36   C34    1.37621       .     S
C34   C36    1.37621       .     S
C37   C36    1.53108       .     S
C36   C37    1.53108       .     S
H38   C37    0.99999       .     S
C37   H38    0.99999       .     S
C39   C37    1.51571       .     S
C37   C39    1.51571       .     S
C40   C39    1.38250       .     S
C39   C40    1.38250       .     S
C46   C39    1.40976       .     S
C39   C46    1.40976       .     S
H41   C40    0.95001       .     S
C40   H41    0.95001       .     S
C42   C40    1.40394       .     S
C40   C42    1.40394       .     S
C43   C42    1.39186       .     S
C42   C43    1.39186       .     S
C44   C43    1.40473       .     S
C43   C44    1.40473       .     S
H45   C44    0.94987       .     S
C44   H45    0.94987       .     S
C46   C44    1.37757       .     S
C44   C46    1.37757       .     S
C48   C47    1.51295       .     S
C47   C48    1.51295       .     S
