data_I
_chemical_name_common  '/data/user2/wty/HOF/MOFDiff/mofdiff/data/test/258-hof-lifm-11'
_cell_length_a 39.74580
_cell_length_b  8.80000
_cell_length_c 40.24620
_cell_angle_alpha 90.00000
_cell_angle_beta  111.39300
_cell_angle_gamma 90.00000
_space_group_name_H-M_alt      'P 1'


loop_
_space_group_symop_operation_xyz
  'x, y, z' 

loop_
_atom_site_label
_atom_site_fract_x
_atom_site_fract_y
_atom_site_fract_z
_atom_site_type_symbol
O0     0.72582   0.6412  0.84958     O
O1     0.78408   0.7143  0.87278     O
C2     0.72388   0.7376   0.6719     C
C3      0.7535   0.7172   0.7024     C
C4     0.68821   0.7806  0.67209     C
C5     0.68413   0.9129  0.69025     C
H6     0.70463   0.9747  0.70202     H
C7     0.72379   0.6547  0.74669     C
H8     0.70377  0.61358  0.72775     H
C9     0.72524   0.7051  0.63619     C
C10    0.75209   0.7193  0.73909     C
C11    0.78928   0.6855  0.70161     C
C12    0.72402   0.6487  0.78098     C
H13    0.70432  0.60396  0.78545     H
C14    0.78062    0.781   0.7673     C
H15    0.80006   0.8278  0.76276     H
C16    0.75574   0.6893    0.847     C
O17     0.9109     0.47  0.71554     O
C18    0.74068   0.5761  0.62848     C
H19    0.75168  0.50379  0.64674     H
C20     0.7534   0.7087  0.80932     C
C21    0.72513   0.6526  0.56696     C
C22    0.70891   0.7795  0.57422     C
H23    0.69713  0.84834  0.55538     H
O24     0.9093   0.6857  0.68557     O
C25    0.65144   0.9534  0.69123     C
H26    0.64912  0.04644  0.70218     H
C27     0.7091   0.8107  0.60809     C
H28    0.69855  0.90169  0.61247     H
C29    0.80564   0.7842   0.6842     C
H30    0.79296  0.87234  0.67257     H
C31    0.74032    0.551   0.5946     C
H32    0.75092  0.46048  0.59004     H
C33    0.78126   0.7754  0.80241     C
H34    0.80104  0.81799  0.82136     H
C35    0.80905   0.5566  0.71872     C
H36     0.7987   0.4885  0.73064     H
C37    0.83934   0.7557  0.68372     C
H38    0.84979  0.82261  0.67165     H
C39    0.65767   0.6897  0.65509     C
H40    0.65934  0.60238  0.64189     H
C41    0.85866   0.6238  0.70162     C
C42    0.84321   0.5268   0.7186     C
H43    0.85596  0.43899  0.73031     H
C44     0.7378      0.5  0.48232     C
C45    0.76165   0.3973  0.47651     C
H46    0.77997  0.35114   0.4962     H
C47    0.75867    0.362  0.44188     C
H48    0.77497  0.29175  0.43791     H
N49    0.73185   0.4295  0.41307     N
H50    0.72997  0.40713  0.39114     H
C51    0.70801   0.5322  0.41887     C
H52    0.68968  0.57836  0.39918     H
C53    0.71098   0.5675   0.4535     C
H54    0.69469  0.63775  0.45746     H
C55    0.74217    0.528  0.52051     C
H56    0.75956  0.46962  0.53855     H
C57    0.72314   0.6292  0.53034     C
H58    0.70695  0.69155  0.51228     H
C59    0.62548   0.7292  0.65786     C
H60    0.60528  0.66492  0.64675     H
C61    0.62029   0.8567   0.6758     C
C62    0.89606   0.5953  0.70096     C
C63    0.58737   0.8916  0.68233     C
H64    0.58561  0.99163  0.69044     H
C65    0.52965   0.8563  0.68936     C
C66    0.52163   0.0049  0.69556     C
H67    0.53698  0.08565  0.69429     H
C68    0.49115   0.0354  0.70362     C
H69    0.48567  0.13697  0.70786     H
N70    0.46868   0.9173  0.70548     N
H71    0.44938  0.93659  0.71058     H
C72     0.4767   0.7687   0.6993     C
H73    0.46134  0.68796  0.70055     H
C74    0.50718   0.7382   0.6912     C
H75    0.51266  0.63664  0.68697     H
C76    0.56082   0.8043   0.6785     C
H77    0.56031   0.7056  0.66873     H
loop_
_geom_bond_atom_site_label_1
_geom_bond_atom_site_label_2
_geom_bond_distance
_geom_bond_site_symmetry_2
_ccdc_geom_bond_type
O0    C16    1.30162       .     S
C16   O0     1.30162       .     S
O1    C16    1.24141       .     S
C16   O1     1.24141       .     S
C2    C3     1.36774       .     S
C3    C2     1.36774       .     S
C2    C4     1.47007       .     S
C4    C2     1.47007       .     S
C2    C9     1.48557       .     S
C9    C2     1.48557       .     S
C3    C10    1.49810       .     S
C10   C3     1.49810       .     S
C3    C11    1.46089       .     S
C11   C3     1.46089       .     S
C4    C5     1.41506       .     S
C5    C4     1.41506       .     S
C4    C39    1.40553       .     S
C39   C4     1.40553       .     S
C5    H6     0.94998       .     S
H6    C5     0.94998       .     S
C5    C25    1.36166       .     S
C25   C5     1.36166       .     S
C7    H8     0.95008       .     S
H8    C7     0.95008       .     S
C7    C10    1.39029       .     S
C10   C7     1.39029       .     S
C7    C12    1.37775       .     S
C12   C7     1.37775       .     S
C9    C18    1.37858       .     S
C18   C9     1.37858       .     S
C9    C27    1.42295       .     S
C27   C9     1.42295       .     S
C10   C14    1.38940       .     S
C14   C10    1.38940       .     S
C11   C29    1.41441       .     S
C29   C11    1.41441       .     S
C11   C35    1.40839       .     S
C35   C11    1.40839       .     S
C12   H13    0.95037       .     S
H13   C12    0.95037       .     S
C12   C20    1.40416       .     S
C20   C12    1.40416       .     S
C14   H15    0.95026       .     S
H15   C14    0.95026       .     S
C14   C33    1.40483       .     S
C33   C14    1.40483       .     S
C16   C20    1.49486       .     S
C20   C16    1.49486       .     S
O17   C62    1.28668       .     S
C62   O17    1.28668       .     S
C18   H19    0.94960       .     S
H19   C18    0.94960       .     S
C18   C31    1.37623       .     S
C31   C18    1.37623       .     S
C20   C33    1.36845       .     S
C33   C20    1.36845       .     S
C21   C22    1.37312       .     S
C22   C21    1.37312       .     S
C21   C31    1.38253       .     S
C31   C21    1.38253       .     S
C21   C57    1.46142       .     S
C57   C21    1.46142       .     S
C22   H23    0.94981       .     S
H23   C22    0.94981       .     S
C22   C27    1.38783       .     S
C27   C22    1.38783       .     S
O24   C62    1.23742       .     S
C62   O24    1.23742       .     S
C25   H26    0.95012   1_565     S
H26   C25    0.95011   1_545     S
C25   C61    1.44282       .     S
C61   C25    1.44282       .     S
C27   H28    0.94972       .     S
H28   C27    0.94972       .     S
C29   H30    0.95005       .     S
H30   C29    0.95005       .     S
C29   C37    1.36976       .     S
C37   C29    1.36976       .     S
C31   H32    0.94980       .     S
H32   C31    0.94980       .     S
C33   H34    0.95015       .     S
H34   C33    0.95015       .     S
C35   H36    0.94999       .     S
H36   C35    0.94999       .     S
C35   C42    1.38455       .     S
C42   C35    1.38455       .     S
C37   H38    0.94993       .     S
H38   C37    0.94993       .     S
C37   C41    1.43260       .     S
C41   C37    1.43260       .     S
C39   H40    0.95017       .     S
H40   C39    0.95017       .     S
C39   C59    1.36902       .     S
C59   C39    1.36902       .     S
C41   C42    1.37072       .     S
C42   C41    1.37072       .     S
C41   C62    1.51726       .     S
C62   C41    1.51726       .     S
C42   H43    0.94963       .     S
H43   C42    0.94963       .     S
C44   C45    1.38987       .     S
C45   C44    1.38987       .     S
C44   C53    1.39015       .     S
C53   C44    1.39015       .     S
C44   C55    1.50283       .     S
C55   C44    1.50283       .     S
C45   H46    0.94985       .     S
H46   C45    0.94985       .     S
C45   C47    1.39017       .     S
C47   C45    1.39017       .     S
C47   H48    0.95023       .     S
H48   C47    0.95023       .     S
C47   N49    1.38992       .     S
N49   C47    1.38992       .     S
N49   H50    0.88046       .     S
H50   N49    0.88046       .     S
N49   C51    1.38941       .     S
C51   N49    1.38941       .     S
C51   H52    0.95004       .     S
H52   C51    0.95004       .     S
C51   C53    1.39028       .     S
C53   C51    1.39028       .     S
C53   H54    0.94976       .     S
H54   C53    0.94976       .     S
C55   H56    0.95011       .     S
H56   C55    0.95011       .     S
C55   C57    1.31909       .     S
C57   C55    1.31909       .     S
C57   H58    0.94985       .     S
H58   C57    0.94985       .     S
C59   H60    0.95006       .     S
H60   C59    0.95006       .     S
C59   C61    1.38975       .     S
C61   C59    1.38975       .     S
C61   C63    1.45816       .     S
C63   C61    1.45816       .     S
C63   H64    0.95024       .     S
H64   C63    0.95024       .     S
C63   C76    1.26840       .     S
C76   C63    1.26840       .     S
C65   C66    1.38994   1_565     S
C66   C65    1.38994   1_545     S
C65   C74    1.38976       .     S
C74   C65    1.38976       .     S
C65   C76    1.52652       .     S
C76   C65    1.52652       .     S
C66   H67    0.95002       .     S
H67   C66    0.95002       .     S
C66   C68    1.38981       .     S
C68   C66    1.38981       .     S
C68   H69    0.95004       .     S
H69   C68    0.95004       .     S
C68   N70    1.38999   1_545     S
N70   C68    1.38999   1_565     S
N70   H71    0.87991       .     S
H71   N70    0.87991       .     S
N70   C72    1.38972       .     S
C72   N70    1.38972       .     S
C72   H73    0.94998       .     S
H73   C72    0.94998       .     S
C72   C74    1.39069       .     S
C74   C72    1.39069       .     S
C74   H75    0.94985       .     S
H75   C74    0.94985       .     S
C76   H77    0.95058       .     S
H77   C76    0.95058       .     S
C16   O0     1.30162       .     S
O0    C16    1.30162       .     S
C16   O1     1.24141       .     S
O1    C16    1.24141       .     S
C3    C2     1.36774       .     S
C2    C3     1.36774       .     S
C4    C2     1.47007       .     S
C2    C4     1.47007       .     S
C9    C2     1.48557       .     S
C2    C9     1.48557       .     S
C10   C3     1.49810       .     S
C3    C10    1.49810       .     S
C11   C3     1.46089       .     S
C3    C11    1.46089       .     S
C5    C4     1.41506       .     S
C4    C5     1.41506       .     S
C39   C4     1.40553       .     S
C4    C39    1.40553       .     S
H6    C5     0.94998       .     S
C5    H6     0.94998       .     S
C25   C5     1.36166       .     S
C5    C25    1.36166       .     S
H8    C7     0.95008       .     S
C7    H8     0.95008       .     S
C10   C7     1.39029       .     S
C7    C10    1.39029       .     S
C12   C7     1.37775       .     S
C7    C12    1.37775       .     S
C18   C9     1.37858       .     S
C9    C18    1.37858       .     S
C27   C9     1.42295       .     S
C9    C27    1.42295       .     S
C14   C10    1.38940       .     S
C10   C14    1.38940       .     S
C29   C11    1.41441       .     S
C11   C29    1.41441       .     S
C35   C11    1.40839       .     S
C11   C35    1.40839       .     S
H13   C12    0.95037       .     S
C12   H13    0.95037       .     S
C20   C12    1.40416       .     S
C12   C20    1.40416       .     S
H15   C14    0.95026       .     S
C14   H15    0.95026       .     S
C33   C14    1.40483       .     S
C14   C33    1.40483       .     S
C20   C16    1.49486       .     S
C16   C20    1.49486       .     S
C62   O17    1.28668       .     S
O17   C62    1.28668       .     S
H19   C18    0.94960       .     S
C18   H19    0.94960       .     S
C31   C18    1.37623       .     S
C18   C31    1.37623       .     S
C33   C20    1.36845       .     S
C20   C33    1.36845       .     S
C22   C21    1.37312       .     S
C21   C22    1.37312       .     S
C31   C21    1.38253       .     S
C21   C31    1.38253       .     S
C57   C21    1.46142       .     S
C21   C57    1.46142       .     S
H23   C22    0.94981       .     S
C22   H23    0.94981       .     S
C27   C22    1.38783       .     S
C22   C27    1.38783       .     S
C62   O24    1.23742       .     S
O24   C62    1.23742       .     S
H26   C25    0.95011   1_545     S
C25   H26    0.95012   1_565     S
C61   C25    1.44282       .     S
C25   C61    1.44282       .     S
H28   C27    0.94972       .     S
C27   H28    0.94972       .     S
H30   C29    0.95005       .     S
C29   H30    0.95005       .     S
C37   C29    1.36976       .     S
C29   C37    1.36976       .     S
H32   C31    0.94980       .     S
C31   H32    0.94980       .     S
H34   C33    0.95015       .     S
C33   H34    0.95015       .     S
H36   C35    0.94999       .     S
C35   H36    0.94999       .     S
C42   C35    1.38455       .     S
C35   C42    1.38455       .     S
H38   C37    0.94993       .     S
C37   H38    0.94993       .     S
C41   C37    1.43260       .     S
C37   C41    1.43260       .     S
H40   C39    0.95017       .     S
C39   H40    0.95017       .     S
C59   C39    1.36902       .     S
C39   C59    1.36902       .     S
C42   C41    1.37072       .     S
C41   C42    1.37072       .     S
C62   C41    1.51726       .     S
C41   C62    1.51726       .     S
H43   C42    0.94963       .     S
C42   H43    0.94963       .     S
C45   C44    1.38987       .     S
C44   C45    1.38987       .     S
C53   C44    1.39015       .     S
C44   C53    1.39015       .     S
C55   C44    1.50283       .     S
C44   C55    1.50283       .     S
H46   C45    0.94985       .     S
C45   H46    0.94985       .     S
C47   C45    1.39017       .     S
C45   C47    1.39017       .     S
H48   C47    0.95023       .     S
C47   H48    0.95023       .     S
N49   C47    1.38992       .     S
C47   N49    1.38992       .     S
H50   N49    0.88046       .     S
N49   H50    0.88046       .     S
C51   N49    1.38941       .     S
N49   C51    1.38941       .     S
H52   C51    0.95004       .     S
C51   H52    0.95004       .     S
C53   C51    1.39028       .     S
C51   C53    1.39028       .     S
H54   C53    0.94976       .     S
C53   H54    0.94976       .     S
H56   C55    0.95011       .     S
C55   H56    0.95011       .     S
C57   C55    1.31909       .     S
C55   C57    1.31909       .     S
H58   C57    0.94985       .     S
C57   H58    0.94985       .     S
H60   C59    0.95006       .     S
C59   H60    0.95006       .     S
C61   C59    1.38975       .     S
C59   C61    1.38975       .     S
C63   C61    1.45816       .     S
C61   C63    1.45816       .     S
H64   C63    0.95024       .     S
C63   H64    0.95024       .     S
C76   C63    1.26840       .     S
C63   C76    1.26840       .     S
C66   C65    1.38994   1_545     S
C65   C66    1.38994   1_565     S
C74   C65    1.38976       .     S
C65   C74    1.38976       .     S
C76   C65    1.52652       .     S
C65   C76    1.52652       .     S
H67   C66    0.95002       .     S
C66   H67    0.95002       .     S
C68   C66    1.38981       .     S
C66   C68    1.38981       .     S
H69   C68    0.95004       .     S
C68   H69    0.95004       .     S
N70   C68    1.38999   1_565     S
C68   N70    1.38999   1_545     S
H71   N70    0.87991       .     S
N70   H71    0.87991       .     S
C72   N70    1.38972       .     S
N70   C72    1.38972       .     S
H73   C72    0.94998       .     S
C72   H73    0.94998       .     S
C74   C72    1.39069       .     S
C72   C74    1.39069       .     S
H75   C74    0.94985       .     S
C74   H75    0.94985       .     S
H77   C76    0.95058       .     S
C76   H77    0.95058       .     S
