data_I
_chemical_name_common  '/data/user2/wty/HOF/MOFDiff/mofdiff/data/test/258-hof-lifm-6'
_cell_length_a 35.07840
_cell_length_b  8.96070
_cell_length_c 36.10210
_cell_angle_alpha 90.00000
_cell_angle_beta  109.34500
_cell_angle_gamma 90.00000
_space_group_name_H-M_alt      'P 1'


loop_
_space_group_symop_operation_xyz
  'x, y, z' 

loop_
_atom_site_label
_atom_site_fract_x
_atom_site_fract_y
_atom_site_fract_z
_atom_site_type_symbol
O0     0.76288   0.6448   0.8778     O
O1     0.70236    0.538  0.85146     O
H2     0.70386  0.53204  0.87513     H
O3     0.92111   0.5778  0.67182     O
H4     0.94422  0.54954  0.67267     H
C5     0.71725   0.6417     0.62     C
O6     0.92468   0.3757  0.70735     O
C7     0.67576   0.8437  0.68589     C
H8     0.70037  0.88398  0.70294     H
C9     0.74671   0.6256  0.69331     C
C10    0.71553    0.663   0.6607     C
C11    0.74303   0.6209  0.73303     C
C12    0.67704   0.7271  0.66165     C
C13    0.71002   0.5522  0.73955     C
H14    0.68911  0.50986  0.71817     H
C15    0.72675   0.5043  0.60791     C
H16    0.73322  0.42303  0.62581     H
C17     0.7872   0.5867   0.6915     C
C18    0.77346   0.6806  0.76529     C
H19    0.79633  0.72585   0.7614     H
C20    0.80741   0.4591  0.70995     C
H21    0.79503  0.39531  0.72364     H
C22    0.63942   0.9042  0.68613     C
H23     0.6395  0.98652  0.70274     H
C24    0.70768   0.5456  0.77705     C
H25    0.68504  0.49892  0.78104     H
C26    0.77097   0.6752  0.80239     C
H27    0.79175  0.71837  0.82373     H
C28    0.80671   0.6812  0.67238     C
H29    0.79355  0.76876  0.65949     H
C30    0.73782   0.6061  0.80899     C
N31    0.70739    0.519  0.42328     N
C32    0.72691   0.4846  0.57041     C
H33    0.73455   0.3903  0.56307     H
C34    0.70735   0.7581  0.59271     C
H35     0.7011  0.85377  0.60047     H
C36    0.84512   0.6465  0.67239     C
H37    0.85825  0.71236  0.65987     H
C38    0.73577   0.5999  0.84911     C
C39    0.86489   0.5193     0.69     C
C40    0.71622   0.5985  0.54268     C
C41     0.8453   0.4244  0.70853     C
H42    0.85817  0.33479  0.72033     H
C43    0.70653    0.736  0.55494     C
H44     0.6992  0.81624  0.53676     H
C45    0.60298   0.8453   0.6623     C
C46    0.90629   0.4835  0.69053     C
C47     0.6403   0.6707  0.63653     C
H48    0.64036  0.59125  0.61913     H
C49    0.71443   0.5736  0.50201     C
C50    0.74044   0.4742   0.4925     C
H51    0.76088  0.42315  0.51252     H
C52    0.60367   0.7301  0.63681     C
H53      0.579  0.69152  0.61944     H
C54    0.56431   0.9031  0.66389     C
C55    0.73581   0.4515  0.45319     C
H56    0.75378  0.38423  0.44704     H
N57    0.49016   0.0056  0.66755     N
C58    0.56036   0.9574   0.6983     C
H59    0.58322  0.96064  0.72154     H
C60    0.52293   0.0074  0.69901     C
H61    0.52093  0.04415  0.72298     H
C62    0.68632   0.6477  0.47051     C
H63    0.66828  0.71844  0.47522     H
C64    0.68496   0.6175  0.43271     C
H65    0.66632  0.67243  0.41206     H
C66    0.52983   0.9147  0.62992     C
H67    0.53124  0.88797  0.60495     H
C68      0.494   0.9655   0.6335     C
H69    0.47096  0.97203  0.61047     H
loop_
_geom_bond_atom_site_label_1
_geom_bond_atom_site_label_2
_geom_bond_distance
_geom_bond_site_symmetry_2
_ccdc_geom_bond_type
O0    C38    1.21921       .     S
C38   O0     1.21921       .     S
O1    H2     0.84028       .     S
H2    O1     0.84028       .     S
O1    C38    1.32448       .     S
C38   O1     1.32448       .     S
O3    H4     0.84010       .     S
H4    O3     0.84010       .     S
O3    C46    1.29351       .     S
C46   O3     1.29351       .     S
C5    C10    1.50260       .     S
C10   C5     1.50260       .     S
C5    C15    1.38340       .     S
C15   C5     1.38340       .     S
C5    C34    1.39732       .     S
C34   C5     1.39732       .     S
O6    C46    1.20766       .     S
C46   O6     1.20766       .     S
C7    H8     0.94993       .     S
H8    C7     0.94993       .     S
C7    C12    1.37314       .     S
C12   C7     1.37314       .     S
C7    C22    1.38790       .     S
C22   C7     1.38790       .     S
C9    C10    1.35702       .     S
C10   C9     1.35702       .     S
C9    C11    1.48235       .     S
C11   C9     1.48235       .     S
C9    C17    1.48478       .     S
C17   C9     1.48478       .     S
C10   C12    1.47808       .     S
C12   C10    1.47808       .     S
C11   C13    1.39849       .     S
C13   C11    1.39849       .     S
C11   C18    1.39942       .     S
C18   C11    1.39942       .     S
C12   C47    1.40160       .     S
C47   C12    1.40160       .     S
C13   H14    0.95007       .     S
H14   C13    0.95007       .     S
C13   C24    1.38446       .     S
C24   C13    1.38446       .     S
C15   H16    0.94989       .     S
H16   C15    0.94989       .     S
C15   C32    1.36714       .     S
C32   C15    1.36714       .     S
C17   C20    1.39310       .     S
C20   C17    1.39310       .     S
C17   C28    1.40530       .     S
C28   C17    1.40530       .     S
C18   H19    0.94993       .     S
H19   C18    0.94993       .     S
C18   C26    1.37165       .     S
C26   C18    1.37165       .     S
C20   H21    0.94963       .     S
H21   C20    0.94963       .     S
C20   C41    1.38239       .     S
C41   C20    1.38239       .     S
C22   H23    0.95005       .     S
H23   C22    0.95005       .     S
C22   C45    1.38711       .     S
C45   C22    1.38711       .     S
C24   H25    0.94985       .     S
H25   C24    0.94985       .     S
C24   C30    1.39056       .     S
C30   C24    1.39056       .     S
C26   H27    0.94999       .     S
H27   C26    0.94999       .     S
C26   C30    1.40568       .     S
C30   C26    1.40568       .     S
C28   H29    0.95023       .     S
H29   C28    0.95023       .     S
C28   C36    1.38266       .     S
C36   C28    1.38266       .     S
C30   C38    1.47485       .     S
C38   C30    1.47485       .     S
N31   C55    1.34630       .     S
C55   N31    1.34630       .     S
N31   C64    1.30056       .     S
C64   N31    1.30056       .     S
C32   H33    0.95032       .     S
H33   C32    0.95032       .     S
C32   C40    1.39133       .     S
C40   C32    1.39133       .     S
C34   H35    0.94982       .     S
H35   C34    0.94982       .     S
C34   C43    1.36872       .     S
C43   C34    1.36872       .     S
C36   H37    0.95007       .     S
H37   C36    0.95007       .     S
C36   C39    1.37556       .     S
C39   C36    1.37556       .     S
C39   C41    1.39551       .     S
C41   C39    1.39551       .     S
C39   C46    1.48117       .     S
C46   C39    1.48117       .     S
C40   C43    1.38895       .     S
C43   C40    1.38895       .     S
C40   C49    1.46577       .     S
C49   C40    1.46577       .     S
C41   H42    0.95007       .     S
H42   C41    0.95007       .     S
C43   H44    0.94977       .     S
H44   C43    0.94977       .     S
C45   C52    1.38844       .     S
C52   C45    1.38844       .     S
C45   C54    1.47077       .     S
C54   C45    1.47077       .     S
C47   H48    0.94991       .     S
H48   C47    0.94991       .     S
C47   C52    1.39393       .     S
C52   C47    1.39393       .     S
C49   C50    1.39685       .     S
C50   C49    1.39685       .     S
C49   C62    1.40126       .     S
C62   C49    1.40126       .     S
C50   H51    0.94995       .     S
H51   C50    0.94995       .     S
C50   C55    1.38892       .     S
C55   C50    1.38892       .     S
C52   H53    0.94980       .     S
H53   C52    0.94980       .     S
C54   C58    1.38319       .     S
C58   C54    1.38319       .     S
C54   C66    1.41245       .     S
C66   C54    1.41245       .     S
C55   H56    0.95012       .     S
H56   C55    0.95012       .     S
N57   C60    1.32161       .     S
C60   N57    1.32161       .     S
N57   C68    1.32969   1_545     S
C68   N57    1.32969   1_565     S
C58   H59    0.94978       .     S
H59   C58    0.94978       .     S
C58   C60    1.39557   1_565     S
C60   C58    1.39557   1_545     S
C60   H61    0.94997       .     S
H61   C60    0.94997       .     S
C62   H63    0.94998       .     S
H63   C62    0.94998       .     S
C62   C64    1.37647       .     S
C64   C62    1.37647       .     S
C64   H65    0.95008       .     S
H65   C64    0.95008       .     S
C66   H67    0.94974       .     S
H67   C66    0.94974       .     S
C66   C68    1.38247       .     S
C68   C66    1.38247       .     S
C68   H69    0.95011       .     S
H69   C68    0.95011       .     S
C38   O0     1.21921       .     S
O0    C38    1.21921       .     S
H2    O1     0.84028       .     S
O1    H2     0.84028       .     S
C38   O1     1.32448       .     S
O1    C38    1.32448       .     S
H4    O3     0.84010       .     S
O3    H4     0.84010       .     S
C46   O3     1.29351       .     S
O3    C46    1.29351       .     S
C10   C5     1.50260       .     S
C5    C10    1.50260       .     S
C15   C5     1.38340       .     S
C5    C15    1.38340       .     S
C34   C5     1.39732       .     S
C5    C34    1.39732       .     S
C46   O6     1.20766       .     S
O6    C46    1.20766       .     S
H8    C7     0.94993       .     S
C7    H8     0.94993       .     S
C12   C7     1.37314       .     S
C7    C12    1.37314       .     S
C22   C7     1.38790       .     S
C7    C22    1.38790       .     S
C10   C9     1.35702       .     S
C9    C10    1.35702       .     S
C11   C9     1.48235       .     S
C9    C11    1.48235       .     S
C17   C9     1.48478       .     S
C9    C17    1.48478       .     S
C12   C10    1.47808       .     S
C10   C12    1.47808       .     S
C13   C11    1.39849       .     S
C11   C13    1.39849       .     S
C18   C11    1.39942       .     S
C11   C18    1.39942       .     S
C47   C12    1.40160       .     S
C12   C47    1.40160       .     S
H14   C13    0.95007       .     S
C13   H14    0.95007       .     S
C24   C13    1.38446       .     S
C13   C24    1.38446       .     S
H16   C15    0.94989       .     S
C15   H16    0.94989       .     S
C32   C15    1.36714       .     S
C15   C32    1.36714       .     S
C20   C17    1.39310       .     S
C17   C20    1.39310       .     S
C28   C17    1.40530       .     S
C17   C28    1.40530       .     S
H19   C18    0.94993       .     S
C18   H19    0.94993       .     S
C26   C18    1.37165       .     S
C18   C26    1.37165       .     S
H21   C20    0.94963       .     S
C20   H21    0.94963       .     S
C41   C20    1.38239       .     S
C20   C41    1.38239       .     S
H23   C22    0.95005       .     S
C22   H23    0.95005       .     S
C45   C22    1.38711       .     S
C22   C45    1.38711       .     S
H25   C24    0.94985       .     S
C24   H25    0.94985       .     S
C30   C24    1.39056       .     S
C24   C30    1.39056       .     S
H27   C26    0.94999       .     S
C26   H27    0.94999       .     S
C30   C26    1.40568       .     S
C26   C30    1.40568       .     S
H29   C28    0.95023       .     S
C28   H29    0.95023       .     S
C36   C28    1.38266       .     S
C28   C36    1.38266       .     S
C38   C30    1.47485       .     S
C30   C38    1.47485       .     S
C55   N31    1.34630       .     S
N31   C55    1.34630       .     S
C64   N31    1.30056       .     S
N31   C64    1.30056       .     S
H33   C32    0.95032       .     S
C32   H33    0.95032       .     S
C40   C32    1.39133       .     S
C32   C40    1.39133       .     S
H35   C34    0.94982       .     S
C34   H35    0.94982       .     S
C43   C34    1.36872       .     S
C34   C43    1.36872       .     S
H37   C36    0.95007       .     S
C36   H37    0.95007       .     S
C39   C36    1.37556       .     S
C36   C39    1.37556       .     S
C41   C39    1.39551       .     S
C39   C41    1.39551       .     S
C46   C39    1.48117       .     S
C39   C46    1.48117       .     S
C43   C40    1.38895       .     S
C40   C43    1.38895       .     S
C49   C40    1.46577       .     S
C40   C49    1.46577       .     S
H42   C41    0.95007       .     S
C41   H42    0.95007       .     S
H44   C43    0.94977       .     S
C43   H44    0.94977       .     S
C52   C45    1.38844       .     S
C45   C52    1.38844       .     S
C54   C45    1.47077       .     S
C45   C54    1.47077       .     S
H48   C47    0.94991       .     S
C47   H48    0.94991       .     S
C52   C47    1.39393       .     S
C47   C52    1.39393       .     S
C50   C49    1.39685       .     S
C49   C50    1.39685       .     S
C62   C49    1.40126       .     S
C49   C62    1.40126       .     S
H51   C50    0.94995       .     S
C50   H51    0.94995       .     S
C55   C50    1.38892       .     S
C50   C55    1.38892       .     S
H53   C52    0.94980       .     S
C52   H53    0.94980       .     S
C58   C54    1.38319       .     S
C54   C58    1.38319       .     S
C66   C54    1.41245       .     S
C54   C66    1.41245       .     S
H56   C55    0.95012       .     S
C55   H56    0.95012       .     S
C60   N57    1.32161       .     S
N57   C60    1.32161       .     S
C68   N57    1.32969   1_565     S
N57   C68    1.32969   1_545     S
H59   C58    0.94978       .     S
C58   H59    0.94978       .     S
C60   C58    1.39557   1_545     S
C58   C60    1.39557   1_565     S
H61   C60    0.94997       .     S
C60   H61    0.94997       .     S
H63   C62    0.94998       .     S
C62   H63    0.94998       .     S
C64   C62    1.37647       .     S
C62   C64    1.37647       .     S
H65   C64    0.95008       .     S
C64   H65    0.95008       .     S
H67   C66    0.94974       .     S
C66   H67    0.94974       .     S
C68   C66    1.38247       .     S
C66   C68    1.38247       .     S
H69   C68    0.95011       .     S
C68   H69    0.95011       .     S
