data_I
_chemical_name_common  '/data/user2/wty/HOF/MOFDiff/mofdiff/data/test/258-hof-lifm-8'
_cell_length_a 43.83610
_cell_length_b  8.96320
_cell_length_c 44.53100
_cell_angle_alpha 90.00000
_cell_angle_beta  113.79200
_cell_angle_gamma 90.00000
_space_group_name_H-M_alt      'P 1'


loop_
_space_group_symop_operation_xyz
  'x, y, z' 

loop_
_atom_site_label
_atom_site_fract_x
_atom_site_fract_y
_atom_site_fract_z
_atom_site_type_symbol
O0     0.73288   0.5214  0.04735     O
O1      0.7863   0.5808  0.06949     O
H2     0.78384    0.582  0.04979     H
N3     0.78672   0.4735  0.51324     N
C4     0.75663   0.6555  0.26274     C
C5     0.75595   0.6554  0.29584     C
C6     0.78394   0.6406  0.35712     C
C7     0.81492   0.8679  0.30704     C
H8     0.79472  0.92118    0.296     H
C9     0.81457   0.7341   0.3236     C
C10     0.7862   0.5757  0.41986     C
C11    0.75689   0.6266  0.16623     C
C12    0.78297   0.6771  0.32376     C
C13    0.75671    0.642  0.19944     C
C14    0.72252   0.6265  0.29614     C
C15    0.73018   0.7145  0.23531     C
H16    0.71184  0.75992  0.23797     H
C17    0.77033   0.4773  0.39276     C
H18    0.76026  0.38788  0.39575     H
C19    0.73063   0.7072  0.20445     C
H20    0.71252  0.74809  0.18625     H
C21    0.80066   0.7367  0.38372     C
H22    0.81166   0.8232  0.38074     H
C23    0.78286     0.59  0.25753     C
H24    0.80114  0.55022  0.27573     H
C25    0.78311   0.5813  0.22684     C
H26     0.8012  0.53403  0.22406     H
C27    0.76959    0.511  0.36286     C
H28    0.75893  0.44392  0.34518     H
C29      0.801   0.7046  0.41424     C
H30    0.81159  0.77203  0.43185     H
C31     0.8442   0.9225  0.30665     C
H32    0.84402  0.01308  0.29552     H
C33    0.70906   0.7291  0.31181     C
H34    0.72172  0.81356  0.32285     H
C35    0.75825   0.5826  0.10405     C
C36    0.75704   0.5582  0.07092     C
C37    0.72783   0.6029  0.13865     C
H38     0.7072  0.60209  0.14094     H
C39    0.78674   0.5418  0.45201     C
C40    0.78713   0.6096  0.13147     C
H41     0.8077  0.61395  0.12909     H
C42    0.78723   0.6305  0.16209     C
H43    0.80765   0.6476  0.18045     H
C44    0.70342   0.5046  0.28045     C
H45    0.71151  0.43742  0.26886     H
C46    0.78737   0.3918  0.46295     C
H47    0.78786    0.311  0.44934     H
C48    0.72768   0.5806  0.10833     C
H49    0.70722  0.56361  0.09001     H
C50    0.87385   0.8457  0.32243     C
C51    0.67727   0.7063  0.31106     C
H52    0.66834  0.77794  0.32102     H
C53    0.65863    0.584  0.29644     C
C54    0.84403   0.6605  0.33952     C
H55    0.84417  0.57099  0.35099     H
C56    0.67301   0.4794  0.28139     C
H57    0.66115  0.39076  0.27189     H
O58    0.52018    0.571   0.3105     O
C59    0.78628   0.6147  0.50366     C
H60    0.78624  0.69186  0.51827     H
C61    0.78587    0.654  0.47368     C
H62    0.78502  0.75607  0.46766     H
C63    0.78728   0.3652  0.49283     C
H64    0.78763  0.26452  0.49964     H
C65    0.87389   0.7132  0.33939     C
H66    0.89407  0.66007  0.35064     H
O67     0.5252   0.3184   0.3065     O
C68     0.5353   0.4532   0.3069     C
C69    0.61827   0.3964  0.30152     C
H70    0.63242   0.3159  0.30165     H
C71    0.62783   0.5424  0.29921     C
C72    0.60713   0.6602    0.299     C
H73    0.61366  0.75992  0.29745     H
C74    0.57688    0.632   0.3011     C
H75    0.56273  0.71252  0.30101     H
C76    0.56732   0.4861   0.3034     C
C77    0.58802   0.3683   0.3036     C
H78    0.58149   0.2685  0.30521     H
C79    0.92779   0.7884   0.3175     C
H80    0.92277  0.68503  0.31687     H
C81    0.95719   0.8349   0.3156     C
H82    0.97226  0.76339   0.3136     H
N83    0.96454   0.9862  0.31654     N
H84    0.98314  0.01565   0.3153     H
C85    0.94249   0.0909   0.3194     C
H86    0.94751  0.19424  0.32009     H
C87    0.91309   0.0443   0.3214     C
H88    0.89803  0.11587  0.32337     H
C89    0.90575   0.8931  0.32043     C
loop_
_geom_bond_atom_site_label_1
_geom_bond_atom_site_label_2
_geom_bond_distance
_geom_bond_site_symmetry_2
_ccdc_geom_bond_type
O0    C36    1.19801       .     S
C36   O0     1.19801       .     S
O1    H2     0.83965       .     S
H2    O1     0.83965       .     S
O1    C36    1.32520       .     S
C36   O1     1.32520       .     S
N3    C59    1.33322       .     S
C59   N3     1.33322       .     S
N3    C63    1.33677       .     S
C63   N3     1.33677       .     S
C4    C5     1.48625       .     S
C5    C4     1.48625       .     S
C4    C15    1.40476       .     S
C15   C4     1.40476       .     S
C4    C23    1.39134       .     S
C23   C4     1.39134       .     S
C5    C12    1.34104       .     S
C12   C5     1.34104       .     S
C5    C14    1.49351       .     S
C14   C5     1.49351       .     S
C6    C12    1.50491       .     S
C12   C6     1.50491       .     S
C6    C21    1.40775       .     S
C21   C6     1.40775       .     S
C6    C27    1.39289       .     S
C27   C6     1.39289       .     S
C7    H8     0.95006       .     S
H8    C7     0.95006       .     S
C7    C9     1.41118       .     S
C9    C7     1.41118       .     S
C7    C31    1.38030       .     S
C31   C7     1.38030       .     S
C9    C12    1.47915       .     S
C12   C9     1.47915       .     S
C9    C54    1.36633       .     S
C54   C9     1.36633       .     S
C10   C17    1.42858       .     S
C17   C10    1.42858       .     S
C10   C29    1.39621       .     S
C29   C10    1.39621       .     S
C10   C39    1.45438       .     S
C39   C10    1.45438       .     S
C11   C13    1.48849       .     S
C13   C11    1.48849       .     S
C11   C37    1.38346       .     S
C37   C11    1.38346       .     S
C11   C42    1.41489       .     S
C42   C11    1.41489       .     S
C13   C19    1.37989       .     S
C19   C13    1.37989       .     S
C13   C25    1.40882       .     S
C25   C13    1.40882       .     S
C14   C33    1.41879       .     S
C33   C14    1.41879       .     S
C14   C44    1.38239       .     S
C44   C14    1.38239       .     S
C15   H16    0.95024       .     S
H16   C15    0.95024       .     S
C15   C19    1.38385       .     S
C19   C15    1.38385       .     S
C17   H18    0.94994       .     S
H18   C17    0.94994       .     S
C17   C27    1.35288       .     S
C27   C17    1.35288       .     S
C19   H20    0.94989       .     S
H20   C19    0.94989       .     S
C21   H22    0.95019       .     S
H22   C21    0.95019       .     S
C21   C29    1.38339       .     S
C29   C21    1.38339       .     S
C23   H24    0.94979       .     S
H24   C23    0.94979       .     S
C23   C25    1.37333       .     S
C25   C23    1.37333       .     S
C25   H26    0.95020       .     S
H26   C25    0.95020       .     S
C27   H28    0.95020       .     S
H28   C27    0.95020       .     S
C29   H30    0.94975       .     S
H30   C29    0.94975       .     S
C31   H32    0.94959   1_565     S
H32   C31    0.94959   1_545     S
C31   C50    1.38566       .     S
C50   C31    1.38566       .     S
C33   H34    0.95008       .     S
H34   C33    0.95008       .     S
C33   C51    1.39546       .     S
C51   C33    1.39546       .     S
C35   C36    1.47107       .     S
C36   C35    1.47107       .     S
C35   C40    1.38022       .     S
C40   C35    1.38022       .     S
C35   C48    1.42776       .     S
C48   C35    1.42776       .     S
C37   H38    0.95010       .     S
H38   C37    0.95010       .     S
C37   C48    1.36229       .     S
C48   C37    1.36229       .     S
C39   C46    1.42649       .     S
C46   C39    1.42649       .     S
C39   C61    1.40489       .     S
C61   C39    1.40489       .     S
C40   H41    0.95023       .     S
H41   C40    0.95023       .     S
C40   C42    1.37460       .     S
C42   C40    1.37460       .     S
C42   H43    0.95012       .     S
H43   C42    0.95012       .     S
C44   H45    0.94995       .     S
H45   C44    0.94995       .     S
C44   C56    1.36924       .     S
C56   C44    1.36924       .     S
C46   H47    0.95015       .     S
H47   C46    0.95015       .     S
C46   C63    1.35335       .     S
C63   C46    1.35335       .     S
C48   H49    0.95015       .     S
H49   C48    0.95015       .     S
C50   C65    1.40705       .     S
C65   C50    1.40705       .     S
C50   C89    1.49812       .     S
C89   C50    1.49812       .     S
C51   H52    0.94993       .     S
H52   C51    0.94993       .     S
C51   C53    1.36527       .     S
C53   C51    1.36527       .     S
C53   C56    1.43749       .     S
C56   C53    1.43749       .     S
C53   C71    1.45311       .     S
C71   C53    1.45311       .     S
C54   H55    0.94978       .     S
H55   C54    0.94978       .     S
C54   C65    1.39377       .     S
C65   C54    1.39377       .     S
C56   H57    0.95028       .     S
H57   C56    0.95028       .     S
O58   C68    1.29058       .     S
C68   O58    1.29058       .     S
C59   H60    0.95001       .     S
H60   C59    0.95001       .     S
C59   C61    1.37382       .     S
C61   C59    1.37382       .     S
C61   H62    0.94984       .     S
H62   C61    0.94984       .     S
C63   H64    0.95016       .     S
H64   C63    0.95016       .     S
C65   H66    0.95012       .     S
H66   C65    0.95012       .     S
O67   C68    1.28445       .     S
C68   O67    1.28445       .     S
C68   C76    1.50264       .     S
C76   C68    1.50264       .     S
C69   H70    0.95000       .     S
H70   C69    0.95000       .     S
C69   C71    1.39050       .     S
C71   C69    1.39050       .     S
C69   C77    1.38906       .     S
C77   C69    1.38906       .     S
C71   C72    1.38978       .     S
C72   C71    1.38978       .     S
C72   H73    0.94949       .     S
H73   C72    0.94949       .     S
C72   C74    1.38963       .     S
C74   C72    1.38963       .     S
C74   H75    0.95059       .     S
H75   C74    0.95059       .     S
C74   C76    1.38957       .     S
C76   C74    1.38957       .     S
C76   C77    1.38989       .     S
C77   C76    1.38989       .     S
C77   H78    0.95069       .     S
H78   C77    0.95069       .     S
C79   H80    0.95010       .     S
H80   C79    0.95010       .     S
C79   C81    1.38918       .     S
C81   C79    1.38918       .     S
C79   C89    1.39027       .     S
C89   C79    1.39027       .     S
C81   H82    0.95007       .     S
H82   C81    0.95007       .     S
C81   N83    1.39060       .     S
N83   C81    1.39060       .     S
N83   H84    0.87969   1_565     S
H84   N83    0.87969   1_545     S
N83   C85    1.38943   1_565     S
C85   N83    1.38943   1_545     S
C85   H86    0.94967       .     S
H86   C85    0.94967       .     S
C85   C87    1.39138       .     S
C87   C85    1.39138       .     S
C87   H88    0.94962       .     S
H88   C87    0.94962       .     S
C87   C89    1.38955   1_545     S
C89   C87    1.38955   1_565     S
C36   O0     1.19801       .     S
O0    C36    1.19801       .     S
H2    O1     0.83965       .     S
O1    H2     0.83965       .     S
C36   O1     1.32520       .     S
O1    C36    1.32520       .     S
C59   N3     1.33322       .     S
N3    C59    1.33322       .     S
C63   N3     1.33677       .     S
N3    C63    1.33677       .     S
C5    C4     1.48625       .     S
C4    C5     1.48625       .     S
C15   C4     1.40476       .     S
C4    C15    1.40476       .     S
C23   C4     1.39134       .     S
C4    C23    1.39134       .     S
C12   C5     1.34104       .     S
C5    C12    1.34104       .     S
C14   C5     1.49351       .     S
C5    C14    1.49351       .     S
C12   C6     1.50491       .     S
C6    C12    1.50491       .     S
C21   C6     1.40775       .     S
C6    C21    1.40775       .     S
C27   C6     1.39289       .     S
C6    C27    1.39289       .     S
H8    C7     0.95006       .     S
C7    H8     0.95006       .     S
C9    C7     1.41118       .     S
C7    C9     1.41118       .     S
C31   C7     1.38030       .     S
C7    C31    1.38030       .     S
C12   C9     1.47915       .     S
C9    C12    1.47915       .     S
C54   C9     1.36633       .     S
C9    C54    1.36633       .     S
C17   C10    1.42858       .     S
C10   C17    1.42858       .     S
C29   C10    1.39621       .     S
C10   C29    1.39621       .     S
C39   C10    1.45438       .     S
C10   C39    1.45438       .     S
C13   C11    1.48849       .     S
C11   C13    1.48849       .     S
C37   C11    1.38346       .     S
C11   C37    1.38346       .     S
C42   C11    1.41489       .     S
C11   C42    1.41489       .     S
C19   C13    1.37989       .     S
C13   C19    1.37989       .     S
C25   C13    1.40882       .     S
C13   C25    1.40882       .     S
C33   C14    1.41879       .     S
C14   C33    1.41879       .     S
C44   C14    1.38239       .     S
C14   C44    1.38239       .     S
H16   C15    0.95024       .     S
C15   H16    0.95024       .     S
C19   C15    1.38385       .     S
C15   C19    1.38385       .     S
H18   C17    0.94994       .     S
C17   H18    0.94994       .     S
C27   C17    1.35288       .     S
C17   C27    1.35288       .     S
H20   C19    0.94989       .     S
C19   H20    0.94989       .     S
H22   C21    0.95019       .     S
C21   H22    0.95019       .     S
C29   C21    1.38339       .     S
C21   C29    1.38339       .     S
H24   C23    0.94979       .     S
C23   H24    0.94979       .     S
C25   C23    1.37333       .     S
C23   C25    1.37333       .     S
H26   C25    0.95020       .     S
C25   H26    0.95020       .     S
H28   C27    0.95020       .     S
C27   H28    0.95020       .     S
H30   C29    0.94975       .     S
C29   H30    0.94975       .     S
H32   C31    0.94959   1_545     S
C31   H32    0.94959   1_565     S
C50   C31    1.38566       .     S
C31   C50    1.38566       .     S
H34   C33    0.95008       .     S
C33   H34    0.95008       .     S
C51   C33    1.39546       .     S
C33   C51    1.39546       .     S
C36   C35    1.47107       .     S
C35   C36    1.47107       .     S
C40   C35    1.38022       .     S
C35   C40    1.38022       .     S
C48   C35    1.42776       .     S
C35   C48    1.42776       .     S
H38   C37    0.95010       .     S
C37   H38    0.95010       .     S
C48   C37    1.36229       .     S
C37   C48    1.36229       .     S
C46   C39    1.42649       .     S
C39   C46    1.42649       .     S
C61   C39    1.40489       .     S
C39   C61    1.40489       .     S
H41   C40    0.95023       .     S
C40   H41    0.95023       .     S
C42   C40    1.37460       .     S
C40   C42    1.37460       .     S
H43   C42    0.95012       .     S
C42   H43    0.95012       .     S
H45   C44    0.94995       .     S
C44   H45    0.94995       .     S
C56   C44    1.36924       .     S
C44   C56    1.36924       .     S
H47   C46    0.95015       .     S
C46   H47    0.95015       .     S
C63   C46    1.35335       .     S
C46   C63    1.35335       .     S
H49   C48    0.95015       .     S
C48   H49    0.95015       .     S
C65   C50    1.40705       .     S
C50   C65    1.40705       .     S
C89   C50    1.49812       .     S
C50   C89    1.49812       .     S
H52   C51    0.94993       .     S
C51   H52    0.94993       .     S
C53   C51    1.36527       .     S
C51   C53    1.36527       .     S
C56   C53    1.43749       .     S
C53   C56    1.43749       .     S
C71   C53    1.45311       .     S
C53   C71    1.45311       .     S
H55   C54    0.94978       .     S
C54   H55    0.94978       .     S
C65   C54    1.39377       .     S
C54   C65    1.39377       .     S
H57   C56    0.95028       .     S
C56   H57    0.95028       .     S
C68   O58    1.29058       .     S
O58   C68    1.29058       .     S
H60   C59    0.95001       .     S
C59   H60    0.95001       .     S
C61   C59    1.37382       .     S
C59   C61    1.37382       .     S
H62   C61    0.94984       .     S
C61   H62    0.94984       .     S
H64   C63    0.95016       .     S
C63   H64    0.95016       .     S
H66   C65    0.95012       .     S
C65   H66    0.95012       .     S
C68   O67    1.28445       .     S
O67   C68    1.28445       .     S
C76   C68    1.50264       .     S
C68   C76    1.50264       .     S
H70   C69    0.95000       .     S
C69   H70    0.95000       .     S
C71   C69    1.39050       .     S
C69   C71    1.39050       .     S
C77   C69    1.38906       .     S
C69   C77    1.38906       .     S
C72   C71    1.38978       .     S
C71   C72    1.38978       .     S
H73   C72    0.94949       .     S
C72   H73    0.94949       .     S
C74   C72    1.38963       .     S
C72   C74    1.38963       .     S
H75   C74    0.95059       .     S
C74   H75    0.95059       .     S
C76   C74    1.38957       .     S
C74   C76    1.38957       .     S
C77   C76    1.38989       .     S
C76   C77    1.38989       .     S
H78   C77    0.95069       .     S
C77   H78    0.95069       .     S
H80   C79    0.95010       .     S
C79   H80    0.95010       .     S
C81   C79    1.38918       .     S
C79   C81    1.38918       .     S
C89   C79    1.39027       .     S
C79   C89    1.39027       .     S
H82   C81    0.95007       .     S
C81   H82    0.95007       .     S
N83   C81    1.39060       .     S
C81   N83    1.39060       .     S
H84   N83    0.87969   1_545     S
N83   H84    0.87969   1_565     S
C85   N83    1.38943   1_545     S
N83   C85    1.38943   1_565     S
H86   C85    0.94967       .     S
C85   H86    0.94967       .     S
C87   C85    1.39138       .     S
C85   C87    1.39138       .     S
H88   C87    0.94962       .     S
C87   H88    0.94962       .     S
C89   C87    1.38955   1_565     S
C87   C89    1.38955   1_545     S
