data_I
_chemical_name_common  '/data/user2/wty/HOF/MOFDiff/mofdiff/data/test/258-hof-lifm-10'
_cell_length_a  9.45840
_cell_length_b 18.35840
_cell_length_c 26.77730
_cell_angle_alpha 94.06000
_cell_angle_beta  96.70800
_cell_angle_gamma 97.63300
_space_group_name_H-M_alt      'P 1'


loop_
_space_group_symop_operation_xyz
  'x, y, z' 

loop_
_atom_site_label
_atom_site_fract_x
_atom_site_fract_y
_atom_site_fract_z
_atom_site_type_symbol
O0      0.4438  0.05036  0.42679     O
H1     0.43396  0.09293  0.41864     H
O2      0.3418   0.0164   0.3475     O
C3      0.2198   0.0291  0.56222     C
H4     0.30308  0.00607   0.5696     H
C5      0.9693   0.0312  0.56367     C
H6     0.87965  0.00943   0.5724     H
C7      0.3371   0.4624  0.37901     C
H8     0.41222  0.48846  0.40287     H
C9      0.2444    0.472  0.54051     C
C10     0.3893   0.6768  0.48227     C
H11    0.46423  0.71133  0.50075     H
C12      0.182   0.5198  0.62075     C
H13    0.13347  0.55273  0.63908     H
C14     0.1766   0.5202  0.56854     C
H15    0.12528  0.55438   0.5517     H
C16     0.2369   0.4751  0.48409     C
C17     0.3645   0.9238  0.40469     C
N18     0.0699   0.8009   0.6538     N
C19     0.0671    0.323  0.49763     C
H20    0.00967  0.35934  0.50656     H
C21     0.1945   0.6474  0.41577     C
H22     0.1341  0.66103  0.38812     H
C23     0.3191   0.4231   0.5662     C
H24    0.36671  0.38975  0.54779     H
C25     0.2608   0.5527  0.46891     C
C26     0.0898   0.9975  0.57531     C
C27     0.2305   0.0942  0.53842     C
H28    0.32098  0.11523  0.52997     H
C29     0.2239   0.4191  0.39589     C
C30     0.1712   0.3402  0.46706     C
C31     0.3022      0.7  0.44232     C
C32     0.2597   0.4703  0.64612     C
C33     0.1235   0.1993  0.50389     C
C34     0.3239   0.7768   0.4289     C
C35     0.1745   0.5755   0.4292     C
H36    0.09969  0.54094  0.41071     H
C37     0.0431   0.2551   0.5157     C
H38    0.96983  0.24577  0.53681     H
C39     0.1117   0.1282  0.52704     C
C40     0.2126   0.4153  0.45072     C
O41     0.2525    0.525  0.88651     O
C42     0.9753   0.0958  0.53963     C
H43    0.89127  0.11803  0.53172     H
C44     0.2341   0.4314  0.29198     C
C45      0.246   0.2828   0.4506     C
H46    0.31022  0.29103  0.42618     H
C47     0.3426   0.4684  0.32839     C
H48    0.42182  0.49829  0.31793     H
C49      0.326   0.4216  0.61734     C
H50    0.37687  0.38685  0.63365     H
C51     0.3951    0.907  0.45426     C
H52    0.42841  0.94583  0.48003     H
C53     0.2256    0.214  0.47013     C
H54    0.28089  0.17691   0.4606     H
C55     0.3804   0.0007   0.3895     C
C56     0.1207   0.3858  0.30893     C
H57    0.04655  0.35889  0.28507     H
C58     0.3692   0.6044  0.49579     C
H59    0.42948  0.59045  0.52334     H
C60     0.1162   0.3797  0.36039     C
H61    0.03946  0.34853  0.37129     H
C62     0.3779   0.8348  0.46664     C
H63    0.40231  0.82412  0.50051     H
C64     0.2511   0.5333  0.73162     C
H65     0.2398  0.57761  0.71623     H
C66      0.265   0.4688  0.70196     C
C67     0.3081    0.866  0.36683     C
H68    0.28143  0.87693  0.33317     H
C69     0.2921   0.7937  0.37909     C
H70      0.259  0.75488   0.3533     H
C71     0.1658   0.8752   0.5931     C
H72    0.23046  0.88111  0.56855     H
C73     0.0811   0.9296   0.6024     C
C74     0.1574   0.8134   0.6187     C
H75    0.21684  0.77729  0.61111     H
C76     0.2855   0.4051  0.72538     C
H77    0.29724  0.36184  0.70553     H
C78     0.2541   0.5318  0.78338     C
H79    0.23985  0.57495  0.80283     H
C80     0.9865   0.8529   0.6635     C
H81    0.92554  0.84609  0.68904     H
C82     0.2771   0.4698  0.80759     C
C83     0.9856   0.9152   0.6381     C
H84    0.92029  0.94873  0.64467     H
C85     0.2892   0.4037   0.7772     C
H86    0.29967  0.35926  0.79251     H
C87     0.3643   0.4448  0.21614     C
H88    0.45094  0.43918   0.2364     H
C89     0.3658   0.4571  0.16557     C
H90    0.45346  0.45994  0.15126     H
C91      0.239   0.4653  0.13594     C
C92     0.1108   0.4611  0.15688     C
H93    0.02414  0.46669  0.13662     H
C94     0.1093   0.4488  0.20744     C
H95    0.02162  0.44593  0.22175     H
C96      0.236   0.4406  0.23708     C
O97     0.3119   0.4134   0.8842     O
C98     0.2745   0.4668   0.8626     C
N99     0.2502   0.5076   0.9808     N
H100   0.25744   0.5168  0.94935     H
C101    0.2408   0.4813   0.0823     C
C102    0.3155   0.4565   0.0026     C
H103   0.36187  0.42554  0.98193     H
C104    0.1704   0.5345   0.0606     C
H105   0.12051  0.56438  0.08082     H
C106    0.3212   0.4452   0.0511     C
H107   0.38115  0.41189  0.06461     H
C108    0.1708   0.5452   0.0104     C
H109   0.11469  0.57951  0.99593     H
O110     0.493  0.18144  0.40056     O
N111     0.477   0.2541   0.3361     N
C112     0.446   0.1904    0.356     C
H113   0.38672   0.1506   0.3359     H
C114    0.5652   0.3162   0.3641     C
H115   0.58334  0.30622  0.39955     H
H116   0.51599  0.35978  0.36161     H
H117   0.65681   0.3252  0.35026     H
C118    0.4212   0.2614   0.2841     C
H119   0.50115  0.26891  0.26394     H
H120   0.36823   0.3038  0.28276     H
H121   0.35642  0.21646  0.27044     H
loop_
_geom_bond_atom_site_label_1
_geom_bond_atom_site_label_2
_geom_bond_distance
_geom_bond_site_symmetry_2
_ccdc_geom_bond_type
H1    O110   1.76636       .     S
O110  H1     1.76636       .     S
H100  O41    1.69577       .     S
O41   H100   1.69577       .     S
O0    H1     0.84011       .     S
H1    O0     0.84011       .     S
O0    C55    1.33183       .     S
C55   O0     1.33183       .     S
O2    C55    1.20794       .     S
C55   O2     1.20794       .     S
C3    H4     0.94985       .     S
H4    C3     0.94985       .     S
C3    C26    1.38249   1_545     S
C26   C3     1.38249   1_565     S
C3    C27    1.39123       .     S
C27   C3     1.39123       .     S
C5    H6     0.95021       .     S
H6    C5     0.95021       .     S
C5    C26    1.38223   1_645     S
C26   C5     1.38223   1_465     S
C5    C42    1.38667       .     S
C42   C5     1.38667       .     S
C7    H8     0.94988       .     S
H8    C7     0.94988       .     S
C7    C29    1.38579       .     S
C29   C7     1.38579       .     S
C7    C47    1.37413       .     S
C47   C7     1.37413       .     S
C9    C14    1.38807       .     S
C14   C9     1.38807       .     S
C9    C16    1.50961       .     S
C16   C9     1.50961       .     S
C9    C23    1.38591       .     S
C23   C9     1.38591       .     S
C10   H11    0.95042       .     S
H11   C10    0.95042       .     S
C10   C31    1.39868       .     S
C31   C10    1.39868       .     S
C10   C58    1.39676       .     S
C58   C10    1.39676       .     S
C12   H13    0.94943       .     S
H13   C12    0.94943       .     S
C12   C14    1.39358       .     S
C14   C12    1.39358       .     S
C12   C32    1.40557       .     S
C32   C12    1.40557       .     S
C14   H15    0.95002       .     S
H15   C14    0.95002       .     S
C16   C25    1.50458       .     S
C25   C16    1.50458       .     S
C16   C40    1.34261       .     S
C40   C16    1.34261       .     S
C17   C51    1.39021       .     S
C51   C17    1.39021       .     S
C17   C55    1.49008   1_565     S
C55   C17    1.49008   1_545     S
C17   C67    1.41748       .     S
C67   C17    1.41748       .     S
N18   C74    1.33521       .     S
C74   N18    1.33521       .     S
N18   C80    1.34679   1_455     S
C80   N18    1.34679   1_655     S
C19   H20    0.94939       .     S
H20   C19    0.94939       .     S
C19   C30    1.37170       .     S
C30   C19    1.37170       .     S
C19   C37    1.36945       .     S
C37   C19    1.36945       .     S
C21   H22    0.95003       .     S
H22   C21    0.95003       .     S
C21   C31    1.39567       .     S
C31   C21    1.39567       .     S
C21   C35    1.38716       .     S
C35   C21    1.38716       .     S
C23   H24    0.95028       .     S
H24   C23    0.95028       .     S
C23   C49    1.36572       .     S
C49   C23    1.36572       .     S
C25   C35    1.38678       .     S
C35   C25    1.38678       .     S
C25   C58    1.39373       .     S
C58   C25    1.39373       .     S
C26   C73    1.48377       .     S
C73   C26    1.48377       .     S
C27   H28    0.94999       .     S
H28   C27    0.94999       .     S
C27   C39    1.37052       .     S
C39   C27    1.37052       .     S
C29   C40    1.49033       .     S
C40   C29    1.49033       .     S
C29   C60    1.39470       .     S
C60   C29    1.39470       .     S
C30   C40    1.49253       .     S
C40   C30    1.49253       .     S
C30   C45    1.41788       .     S
C45   C30    1.41788       .     S
C31   C34    1.47351       .     S
C34   C31    1.47351       .     S
C32   C49    1.39669       .     S
C49   C32    1.39669       .     S
C32   C66    1.49255       .     S
C66   C32    1.49255       .     S
C33   C37    1.39461       .     S
C37   C33    1.39461       .     S
C33   C39    1.48072       .     S
C39   C33    1.48072       .     S
C33   C53    1.41134       .     S
C53   C33    1.41134       .     S
C34   C62    1.41367       .     S
C62   C34    1.41367       .     S
C34   C69    1.39834       .     S
C69   C34    1.39834       .     S
C35   H36    0.95014       .     S
H36   C35    0.95014       .     S
C37   H38    0.95018   1_455     S
H38   C37    0.95018   1_655     S
C39   C42    1.43458   1_455     S
C42   C39    1.43458   1_655     S
O41   C98    1.26021       .     S
C98   O41    1.26021       .     S
C42   H43    0.94983       .     S
H43   C42    0.94983       .     S
C44   C47    1.39728       .     S
C47   C44    1.39728       .     S
C44   C56    1.40934       .     S
C56   C44    1.40934       .     S
C44   C96    1.49348       .     S
C96   C44    1.49348       .     S
C45   H46    0.94962       .     S
H46   C45    0.94962       .     S
C45   C53    1.39943       .     S
C53   C45    1.39943       .     S
C47   H48    0.95004       .     S
H48   C47    0.95004       .     S
C49   H50    0.94928       .     S
H50   C49    0.94928       .     S
C51   H52    0.95052       .     S
H52   C51    0.95052       .     S
C51   C62    1.38231       .     S
C62   C51    1.38231       .     S
C53   H54    0.95048       .     S
H54   C53    0.95048       .     S
C56   H57    0.95012       .     S
H57   C56    0.95012       .     S
C56   C60    1.39550       .     S
C60   C56    1.39550       .     S
C58   H59    0.94982       .     S
H59   C58    0.94982       .     S
C60   H61    0.94989       .     S
H61   C60    0.94989       .     S
C62   H63    0.95005       .     S
H63   C62    0.95005       .     S
C64   H65    0.95039       .     S
H65   C64    0.95039       .     S
C64   C66    1.40811       .     S
C66   C64    1.40811       .     S
C64   C78    1.38527       .     S
C78   C64    1.38527       .     S
C66   C76    1.39073       .     S
C76   C66    1.39073       .     S
C67   H68    0.94985       .     S
H68   C67    0.94985       .     S
C67   C69    1.38289       .     S
C69   C67    1.38289       .     S
C69   H70    0.95045       .     S
H70   C69    0.95045       .     S
C71   H72    0.95097       .     S
H72   C71    0.95097       .     S
C71   C73    1.38750       .     S
C73   C71    1.38750       .     S
C71   C74    1.36467       .     S
C74   C71    1.36467       .     S
C73   C83    1.40489   1_455     S
C83   C73    1.40489   1_655     S
C74   H75    0.95051       .     S
H75   C74    0.95051       .     S
C76   H77    0.95028       .     S
H77   C76    0.95028       .     S
C76   C85    1.38609       .     S
C85   C76    1.38609       .     S
C78   H79    0.95041       .     S
H79   C78    0.95041       .     S
C78   C82    1.37857       .     S
C82   C78    1.37857       .     S
C80   H81    0.94914       .     S
H81   C80    0.94914       .     S
C80   C83    1.37192       .     S
C83   C80    1.37192       .     S
C82   C85    1.43760       .     S
C85   C82    1.43760       .     S
C82   C98    1.48088       .     S
C98   C82    1.48088       .     S
C83   H84    0.95001       .     S
H84   C83    0.95001       .     S
C85   H86    0.95017       .     S
H86   C85    0.95017       .     S
C87   H88    0.95028       .     S
H88   C87    0.95028       .     S
C87   C89    1.38989       .     S
C89   C87    1.38989       .     S
C87   C96    1.39039       .     S
C96   C87    1.39039       .     S
C89   H90    0.95003       .     S
H90   C89    0.95003       .     S
C89   C91    1.39037       .     S
C91   C89    1.39037       .     S
C91   C92    1.38953       .     S
C92   C91    1.38953       .     S
C91   C101   1.48787       .     S
C101  C91    1.48787       .     S
C92   H93    0.95029       .     S
H93   C92    0.95029       .     S
C92   C94    1.38962       .     S
C94   C92    1.38962       .     S
C94   H95    0.95019       .     S
H95   C94    0.95019       .     S
C94   C96    1.38973       .     S
C96   C94    1.38973       .     S
O97   C98    1.24312       .     S
C98   O97    1.24312       .     S
N99   H100   0.87918       .     S
H100  N99    0.87918       .     S
N99   C102   1.32270   1_556     S
C102  N99    1.32270   1_554     S
N99   C108   1.36675   1_556     S
C108  N99    1.36675   1_554     S
C101  C104   1.37755       .     S
C104  C101   1.37755       .     S
C101  C106   1.38542       .     S
C106  C101   1.38542       .     S
C102  H103   0.94876   1_554     S
H103  C102   0.94876   1_556     S
C102  C106   1.32564       .     S
C106  C102   1.32564       .     S
C104  H105   0.95033       .     S
H105  C104   0.95033       .     S
C104  C108   1.37256       .     S
C108  C104   1.37256       .     S
C106  H107   0.94967       .     S
H107  C106   0.94967       .     S
C108  H109   0.95071   1_554     S
H109  C108   0.95071   1_556     S
O110  C112   1.25367       .     S
C112  O110   1.25367       .     S
N111  C112   1.33084       .     S
C112  N111   1.33084       .     S
N111  C114   1.42759       .     S
C114  N111   1.42759       .     S
N111  C118   1.45220       .     S
C118  N111   1.45220       .     S
C112  H113   0.95022       .     S
H113  C112   0.95022       .     S
C114  H115   0.97930       .     S
H115  C114   0.97930       .     S
C114  H116   0.98001       .     S
H116  C114   0.98001       .     S
C114  H117   0.98035       .     S
H117  C114   0.98035       .     S
C118  H119   0.98004       .     S
H119  C118   0.98004       .     S
C118  H120   0.98059       .     S
H120  C118   0.98059       .     S
C118  H121   0.98005       .     S
H121  C118   0.98005       .     S
O110  H1     1.76636       .     S
H1    O110   1.76636       .     S
O41   H100   1.69577       .     S
H100  O41    1.69577       .     S
H1    O0     0.84011       .     S
O0    H1     0.84011       .     S
C55   O0     1.33183       .     S
O0    C55    1.33183       .     S
C55   O2     1.20794       .     S
O2    C55    1.20794       .     S
H4    C3     0.94985       .     S
C3    H4     0.94985       .     S
C26   C3     1.38249   1_565     S
C3    C26    1.38249   1_545     S
C27   C3     1.39123       .     S
C3    C27    1.39123       .     S
H6    C5     0.95021       .     S
C5    H6     0.95021       .     S
C26   C5     1.38223   1_465     S
C5    C26    1.38223   1_645     S
C42   C5     1.38667       .     S
C5    C42    1.38667       .     S
H8    C7     0.94988       .     S
C7    H8     0.94988       .     S
C29   C7     1.38579       .     S
C7    C29    1.38579       .     S
C47   C7     1.37413       .     S
C7    C47    1.37413       .     S
C14   C9     1.38807       .     S
C9    C14    1.38807       .     S
C16   C9     1.50961       .     S
C9    C16    1.50961       .     S
C23   C9     1.38591       .     S
C9    C23    1.38591       .     S
H11   C10    0.95042       .     S
C10   H11    0.95042       .     S
C31   C10    1.39868       .     S
C10   C31    1.39868       .     S
C58   C10    1.39676       .     S
C10   C58    1.39676       .     S
H13   C12    0.94943       .     S
C12   H13    0.94943       .     S
C14   C12    1.39358       .     S
C12   C14    1.39358       .     S
C32   C12    1.40557       .     S
C12   C32    1.40557       .     S
H15   C14    0.95002       .     S
C14   H15    0.95002       .     S
C25   C16    1.50458       .     S
C16   C25    1.50458       .     S
C40   C16    1.34261       .     S
C16   C40    1.34261       .     S
C51   C17    1.39021       .     S
C17   C51    1.39021       .     S
C55   C17    1.49008   1_545     S
C17   C55    1.49008   1_565     S
C67   C17    1.41748       .     S
C17   C67    1.41748       .     S
C74   N18    1.33521       .     S
N18   C74    1.33521       .     S
C80   N18    1.34679   1_655     S
N18   C80    1.34679   1_455     S
H20   C19    0.94939       .     S
C19   H20    0.94939       .     S
C30   C19    1.37170       .     S
C19   C30    1.37170       .     S
C37   C19    1.36945       .     S
C19   C37    1.36945       .     S
H22   C21    0.95003       .     S
C21   H22    0.95003       .     S
C31   C21    1.39567       .     S
C21   C31    1.39567       .     S
C35   C21    1.38716       .     S
C21   C35    1.38716       .     S
H24   C23    0.95028       .     S
C23   H24    0.95028       .     S
C49   C23    1.36572       .     S
C23   C49    1.36572       .     S
C35   C25    1.38678       .     S
C25   C35    1.38678       .     S
C58   C25    1.39373       .     S
C25   C58    1.39373       .     S
C73   C26    1.48377       .     S
C26   C73    1.48377       .     S
H28   C27    0.94999       .     S
C27   H28    0.94999       .     S
C39   C27    1.37052       .     S
C27   C39    1.37052       .     S
C40   C29    1.49033       .     S
C29   C40    1.49033       .     S
C60   C29    1.39470       .     S
C29   C60    1.39470       .     S
C40   C30    1.49253       .     S
C30   C40    1.49253       .     S
C45   C30    1.41788       .     S
C30   C45    1.41788       .     S
C34   C31    1.47351       .     S
C31   C34    1.47351       .     S
C49   C32    1.39669       .     S
C32   C49    1.39669       .     S
C66   C32    1.49255       .     S
C32   C66    1.49255       .     S
C37   C33    1.39461       .     S
C33   C37    1.39461       .     S
C39   C33    1.48072       .     S
C33   C39    1.48072       .     S
C53   C33    1.41134       .     S
C33   C53    1.41134       .     S
C62   C34    1.41367       .     S
C34   C62    1.41367       .     S
C69   C34    1.39834       .     S
C34   C69    1.39834       .     S
H36   C35    0.95014       .     S
C35   H36    0.95014       .     S
H38   C37    0.95018   1_655     S
C37   H38    0.95018   1_455     S
C42   C39    1.43458   1_655     S
C39   C42    1.43458   1_455     S
C98   O41    1.26021       .     S
O41   C98    1.26021       .     S
H43   C42    0.94983       .     S
C42   H43    0.94983       .     S
C47   C44    1.39728       .     S
C44   C47    1.39728       .     S
C56   C44    1.40934       .     S
C44   C56    1.40934       .     S
C96   C44    1.49348       .     S
C44   C96    1.49348       .     S
H46   C45    0.94962       .     S
C45   H46    0.94962       .     S
C53   C45    1.39943       .     S
C45   C53    1.39943       .     S
H48   C47    0.95004       .     S
C47   H48    0.95004       .     S
H50   C49    0.94928       .     S
C49   H50    0.94928       .     S
H52   C51    0.95052       .     S
C51   H52    0.95052       .     S
C62   C51    1.38231       .     S
C51   C62    1.38231       .     S
H54   C53    0.95048       .     S
C53   H54    0.95048       .     S
H57   C56    0.95012       .     S
C56   H57    0.95012       .     S
C60   C56    1.39550       .     S
C56   C60    1.39550       .     S
H59   C58    0.94982       .     S
C58   H59    0.94982       .     S
H61   C60    0.94989       .     S
C60   H61    0.94989       .     S
H63   C62    0.95005       .     S
C62   H63    0.95005       .     S
H65   C64    0.95039       .     S
C64   H65    0.95039       .     S
C66   C64    1.40811       .     S
C64   C66    1.40811       .     S
C78   C64    1.38527       .     S
C64   C78    1.38527       .     S
C76   C66    1.39073       .     S
C66   C76    1.39073       .     S
H68   C67    0.94985       .     S
C67   H68    0.94985       .     S
C69   C67    1.38289       .     S
C67   C69    1.38289       .     S
H70   C69    0.95045       .     S
C69   H70    0.95045       .     S
H72   C71    0.95097       .     S
C71   H72    0.95097       .     S
C73   C71    1.38750       .     S
C71   C73    1.38750       .     S
C74   C71    1.36467       .     S
C71   C74    1.36467       .     S
C83   C73    1.40489   1_655     S
C73   C83    1.40489   1_455     S
H75   C74    0.95051       .     S
C74   H75    0.95051       .     S
H77   C76    0.95028       .     S
C76   H77    0.95028       .     S
C85   C76    1.38609       .     S
C76   C85    1.38609       .     S
H79   C78    0.95041       .     S
C78   H79    0.95041       .     S
C82   C78    1.37857       .     S
C78   C82    1.37857       .     S
H81   C80    0.94914       .     S
C80   H81    0.94914       .     S
C83   C80    1.37192       .     S
C80   C83    1.37192       .     S
C85   C82    1.43760       .     S
C82   C85    1.43760       .     S
C98   C82    1.48088       .     S
C82   C98    1.48088       .     S
H84   C83    0.95001       .     S
C83   H84    0.95001       .     S
H86   C85    0.95017       .     S
C85   H86    0.95017       .     S
H88   C87    0.95028       .     S
C87   H88    0.95028       .     S
C89   C87    1.38989       .     S
C87   C89    1.38989       .     S
C96   C87    1.39039       .     S
C87   C96    1.39039       .     S
H90   C89    0.95003       .     S
C89   H90    0.95003       .     S
C91   C89    1.39037       .     S
C89   C91    1.39037       .     S
C92   C91    1.38953       .     S
C91   C92    1.38953       .     S
C101  C91    1.48787       .     S
C91   C101   1.48787       .     S
H93   C92    0.95029       .     S
C92   H93    0.95029       .     S
C94   C92    1.38962       .     S
C92   C94    1.38962       .     S
H95   C94    0.95019       .     S
C94   H95    0.95019       .     S
C96   C94    1.38973       .     S
C94   C96    1.38973       .     S
C98   O97    1.24312       .     S
O97   C98    1.24312       .     S
H100  N99    0.87918       .     S
N99   H100   0.87918       .     S
C102  N99    1.32270   1_554     S
N99   C102   1.32270   1_556     S
C108  N99    1.36675   1_554     S
N99   C108   1.36675   1_556     S
C104  C101   1.37755       .     S
C101  C104   1.37755       .     S
C106  C101   1.38542       .     S
C101  C106   1.38542       .     S
H103  C102   0.94876   1_556     S
C102  H103   0.94876   1_554     S
C106  C102   1.32564       .     S
C102  C106   1.32564       .     S
H105  C104   0.95033       .     S
C104  H105   0.95033       .     S
C108  C104   1.37256       .     S
C104  C108   1.37256       .     S
H107  C106   0.94967       .     S
C106  H107   0.94967       .     S
H109  C108   0.95071   1_556     S
C108  H109   0.95071   1_554     S
C112  O110   1.25367       .     S
O110  C112   1.25367       .     S
C112  N111   1.33084       .     S
N111  C112   1.33084       .     S
C114  N111   1.42759       .     S
N111  C114   1.42759       .     S
C118  N111   1.45220       .     S
N111  C118   1.45220       .     S
H113  C112   0.95022       .     S
C112  H113   0.95022       .     S
H115  C114   0.97930       .     S
C114  H115   0.97930       .     S
H116  C114   0.98001       .     S
C114  H116   0.98001       .     S
H117  C114   0.98035       .     S
C114  H117   0.98035       .     S
H119  C118   0.98004       .     S
C118  H119   0.98004       .     S
H120  C118   0.98059       .     S
C118  H120   0.98059       .     S
H121  C118   0.98005       .     S
C118  H121   0.98005       .     S
