data_I
_chemical_name_common  '/data/user2/wty/HOF/MOFDiff/mofdiff/data/test/259-etta_'
_cell_length_a 13.23430
_cell_length_b  5.62720
_cell_length_c 21.44050
_cell_angle_alpha 90.00000
_cell_angle_beta  95.91300
_cell_angle_gamma 90.00000
_space_group_name_H-M_alt      'P 1'


loop_
_space_group_symop_operation_xyz
  'x, y, z' 

loop_
_atom_site_label
_atom_site_fract_x
_atom_site_fract_y
_atom_site_fract_z
_atom_site_type_symbol
C0      0.6025   0.5143   0.3002     C
C1      0.5519   0.3344   0.3264     C
H2     0.58849  0.21184   0.3493     H
C3      0.4466   0.3323   0.3193     C
H4     0.41151  0.21004  0.33874     H
C5       0.392   0.5036  0.28483     C
C6      0.4446   0.6837   0.2587     C
H7     0.40824  0.80462  0.23496     H
C8      0.5497   0.6899   0.2667     C
H9     0.58518  0.81567  0.24896     H
C10     0.1497   0.4812    0.453     C
C11      0.126   0.3039   0.4099     C
H12    0.08186  0.17856  0.41916     H
C13     0.1665   0.3082   0.3529     C
H14    0.14917  0.18631  0.32301     H
C15     0.2317   0.4873  0.33886     C
C16      0.256   0.6593   0.3837     C
H17    0.30291  0.78056   0.3757     H
C18     0.2136   0.6593   0.4402     C
H19    0.22919  0.78307  0.46975     H
C20     0.2774   0.4949   0.2776     C
N21      0.106   0.4798  0.51217     N
H22    0.07767  0.33518  0.51804     H
H23    0.05737  0.59426  0.51177     H
H24    0.15552  0.50899  0.54393     H
N25     0.7129   0.5194  0.30993     N
H26    0.73831  0.38847  0.29213     H
H27    0.73327  0.52034  0.35178     H
H28    0.73609   0.6525  0.29198     H
loop_
_geom_bond_atom_site_label_1
_geom_bond_atom_site_label_2
_geom_bond_distance
_geom_bond_site_symmetry_2
_ccdc_geom_bond_type
C0    C1     1.36613       .     S
C1    C0     1.36613       .     S
C0    C8     1.37010       .     S
C8    C0     1.37010       .     S
C0    N25    1.45474       .     S
N25   C0     1.45474       .     S
C1    H2     0.94985       .     S
H2    C1     0.94985       .     S
C1    C3     1.38623       .     S
C3    C1     1.38623       .     S
C3    H4     0.95004       .     S
H4    C3     0.95004       .     S
C3    C5     1.37386       .     S
C5    C3     1.37386       .     S
C5    C6     1.38055       .     S
C6    C5     1.38055       .     S
C5    C20    1.50938       .     S
C20   C5     1.50938       .     S
C6    H7     0.95035       .     S
H7    C6     0.95035       .     S
C6    C8     1.38425       .     S
C8    C6     1.38425       .     S
C8    H9     0.95018       .     S
H9    C8     0.95018       .     S
C10   C11    1.37405       .     S
C11   C10    1.37405       .     S
C10   C18    1.35746       .     S
C18   C10    1.35746       .     S
C10   N21    1.44746       .     S
N21   C10    1.44746       .     S
C11   H12    0.94975       .     S
H12   C11    0.94975       .     S
C11   C13    1.38433       .     S
C13   C11    1.38433       .     S
C13   H14    0.95051       .     S
H14   C13    0.95051       .     S
C13   C15    1.38000       .     S
C15   C13    1.38000       .     S
C15   C16    1.37869       .     S
C16   C15    1.37869       .     S
C15   C20    1.50214       .     S
C20   C15    1.50214       .     S
C16   H17    0.94994       .     S
H17   C16    0.94994       .     S
C16   C18    1.38650       .     S
C18   C16    1.38650       .     S
C18   H19    0.94980       .     S
H19   C18    0.94980       .     S
N21   H22    0.91017       .     S
H22   N21    0.91017       .     S
N21   H23    0.90994       .     S
H23   N21    0.90994       .     S
N21   H24    0.91007       .     S
H24   N21    0.91007       .     S
N25   H26    0.90995       .     S
H26   N25    0.90995       .     S
N25   H27    0.90994       .     S
H27   N25    0.90994       .     S
N25   H28    0.90973       .     S
H28   N25    0.90973       .     S
C1    C0     1.36613       .     S
C0    C1     1.36613       .     S
C8    C0     1.37010       .     S
C0    C8     1.37010       .     S
N25   C0     1.45474       .     S
C0    N25    1.45474       .     S
H2    C1     0.94985       .     S
C1    H2     0.94985       .     S
C3    C1     1.38623       .     S
C1    C3     1.38623       .     S
H4    C3     0.95004       .     S
C3    H4     0.95004       .     S
C5    C3     1.37386       .     S
C3    C5     1.37386       .     S
C6    C5     1.38055       .     S
C5    C6     1.38055       .     S
C20   C5     1.50938       .     S
C5    C20    1.50938       .     S
H7    C6     0.95035       .     S
C6    H7     0.95035       .     S
C8    C6     1.38425       .     S
C6    C8     1.38425       .     S
H9    C8     0.95018       .     S
C8    H9     0.95018       .     S
C11   C10    1.37405       .     S
C10   C11    1.37405       .     S
C18   C10    1.35746       .     S
C10   C18    1.35746       .     S
N21   C10    1.44746       .     S
C10   N21    1.44746       .     S
H12   C11    0.94975       .     S
C11   H12    0.94975       .     S
C13   C11    1.38433       .     S
C11   C13    1.38433       .     S
H14   C13    0.95051       .     S
C13   H14    0.95051       .     S
C15   C13    1.38000       .     S
C13   C15    1.38000       .     S
C16   C15    1.37869       .     S
C15   C16    1.37869       .     S
C20   C15    1.50214       .     S
C15   C20    1.50214       .     S
H17   C16    0.94994       .     S
C16   H17    0.94994       .     S
C18   C16    1.38650       .     S
C16   C18    1.38650       .     S
H19   C18    0.94980       .     S
C18   H19    0.94980       .     S
H22   N21    0.91017       .     S
N21   H22    0.91017       .     S
H23   N21    0.90994       .     S
N21   H23    0.90994       .     S
H24   N21    0.91007       .     S
N21   H24    0.91007       .     S
H26   N25    0.90995       .     S
N25   H26    0.90995       .     S
H27   N25    0.90994       .     S
N25   H27    0.90994       .     S
H28   N25    0.90973       .     S
N25   H28    0.90973       .     S
