data_I
_chemical_name_common  '/data/user2/wty/HOF/MOFDiff/mofdiff/data/test/259-etta_cl'
_cell_length_a 10.60760
_cell_length_b 11.84110
_cell_length_c 13.07420
_cell_angle_alpha 77.21500
_cell_angle_beta  71.85900
_cell_angle_gamma 88.14500
_space_group_name_H-M_alt      'P 1'


loop_
_space_group_symop_operation_xyz
  'x, y, z' 

loop_
_atom_site_label
_atom_site_fract_x
_atom_site_fract_y
_atom_site_fract_z
_atom_site_type_symbol
N0     0.30495  0.97994   0.1141     N
H1     0.33414  0.95826  0.04833     H
H2     0.36564  0.03042   0.1175     H
H3     0.22604  0.01484  0.12038     H
C4     0.28732  0.87748  0.20436     C
N5       0.547  0.33131  0.06048     N
H6     0.61885  0.37896  0.01906     H
H7     0.48896    0.333  0.02157     H
H8     0.57367  0.25764  0.07755     H
C9      0.3114   0.8884  0.29927     C
H10     0.3395  0.96104  0.30597     H
N11    0.99134  0.67443  0.89979     N
H12    0.97994  0.75152  0.89635     H
H13     0.0418  0.64727  0.94428     H
H14    0.91081  0.63595   0.9277     H
C15      0.294  0.79149  0.38497     C
H16    0.30956  0.79839  0.45109     H
N17    0.20508   0.1216  0.85569     N
H18    0.26749  0.06725  0.84435     H
H19     0.1227  0.08691  0.87842     H
H20    0.21393  0.15689  0.90838     H
C21    0.25394  0.68403  0.37595     C
C22    0.22722  0.67663  0.27943     C
H23    0.19716  0.60481  0.27253     H
C24     0.2443  0.77339  0.19379     C
H25    0.22645    0.768  0.12815     H
C26    0.48187  0.37047  0.16225     C
C27    0.52076  0.47478  0.17597     C
H28    0.59028  0.52175  0.11965     H
C29    0.45727  0.51017  0.27281     C
H30    0.48381  0.58186  0.28262     H
C31    0.35468  0.44199  0.35641     C
C32    0.32028  0.33597   0.3404     C
H33    0.25284  0.28723  0.39718     H
C34     0.3821  0.30047  0.24387     C
H35    0.35647  0.22869  0.23364     H
C36    0.24055  0.58344  0.47084     C
C37    0.28284  0.47599  0.46224     C
C38    0.17895  0.61205  0.58158     C
C39     0.0543  0.65902  0.60729     C
H40    0.01021  0.67674  0.55293     H
C41     0.9933  0.68041  0.71116     C
H42    0.90755  0.71165   0.7283     H
C43    0.05805    0.656   0.7889     C
C44     0.1832  0.61394  0.76423     C
H45    0.22831   0.5997  0.81794     H
C46     0.2434  0.59234  0.66068     C
H47    0.33034  0.56351  0.64356     H
C48    0.25931  0.37961  0.56251     C
C49    0.13445  0.35273  0.63914     C
H50    0.06038  0.39335  0.62583     H
C51     0.1156  0.26738  0.73516     C
H52    0.02974   0.2505  0.78771     H
C53    0.22287  0.20782  0.75295     C
C54     0.3474  0.22993  0.67688     C
H55    0.42036  0.18702  0.68965     H
C56    0.36555  0.31513  0.58166     C
H57    0.45129  0.32998  0.52863     H
loop_
_geom_bond_atom_site_label_1
_geom_bond_atom_site_label_2
_geom_bond_distance
_geom_bond_site_symmetry_2
_ccdc_geom_bond_type
N0    H1     0.90991       .     S
H1    N0     0.90991       .     S
N0    H2     0.91006   1_565     S
H2    N0     0.91006   1_545     S
N0    H3     0.90994   1_565     S
H3    N0     0.90994   1_545     S
N0    C4     1.46394       .     S
C4    N0     1.46394       .     S
C4    C9     1.37559       .     S
C9    C4     1.37559       .     S
C4    C24    1.37752       .     S
C24   C4     1.37752       .     S
N5    H6     0.90999       .     S
H6    N5     0.90999       .     S
N5    H7     0.90993       .     S
H7    N5     0.90993       .     S
N5    H8     0.90994       .     S
H8    N5     0.90994       .     S
N5    C26    1.46377       .     S
C26   N5     1.46377       .     S
C9    H10    0.95003       .     S
H10   C9     0.95003       .     S
C9    C15    1.38643       .     S
C15   C9     1.38643       .     S
N11   H12    0.90993       .     S
H12   N11    0.90993       .     S
N11   H13    0.91006   1_655     S
H13   N11    0.91006   1_455     S
N11   H14    0.90993       .     S
H14   N11    0.90993       .     S
N11   C43    1.46337   1_655     S
C43   N11    1.46337   1_455     S
C15   H16    0.94984       .     S
H16   C15    0.94984       .     S
C15   C21    1.39507       .     S
C21   C15    1.39507       .     S
N17   H18    0.90992       .     S
H18   N17    0.90992       .     S
N17   H19    0.91004       .     S
H19   N17    0.91004       .     S
N17   H20    0.91006       .     S
H20   N17    0.91006       .     S
N17   C53    1.45942       .     S
C53   N17    1.45942       .     S
C21   C22    1.39776       .     S
C22   C21    1.39776       .     S
C21   C36    1.49172       .     S
C36   C21    1.49172       .     S
C22   H23    0.94998       .     S
H23   C22    0.94998       .     S
C22   C24    1.38512       .     S
C24   C22    1.38512       .     S
C24   H25    0.95007       .     S
H25   C24    0.95007       .     S
C26   C27    1.38024       .     S
C27   C26    1.38024       .     S
C26   C34    1.38126       .     S
C34   C26    1.38126       .     S
C27   H28    0.95000       .     S
H28   C27    0.95000       .     S
C27   C29    1.38484       .     S
C29   C27    1.38484       .     S
C29   H30    0.94998       .     S
H30   C29    0.94998       .     S
C29   C31    1.39869       .     S
C31   C29    1.39869       .     S
C31   C32    1.39517       .     S
C32   C31    1.39517       .     S
C31   C37    1.49243       .     S
C37   C31    1.49243       .     S
C32   H33    0.94992       .     S
H33   C32    0.94992       .     S
C32   C34    1.37880       .     S
C34   C32    1.37880       .     S
C34   H35    0.94981       .     S
H35   C34    0.94981       .     S
C36   C37    1.35191       .     S
C37   C36    1.35191       .     S
C36   C38    1.50053       .     S
C38   C36    1.50053       .     S
C37   C48    1.49528       .     S
C48   C37    1.49528       .     S
C38   C39    1.38888       .     S
C39   C38    1.38888       .     S
C38   C46    1.38365       .     S
C46   C38    1.38365       .     S
C39   H40    0.95000       .     S
H40   C39    0.95000       .     S
C39   C41    1.38618   1_455     S
C41   C39    1.38618   1_655     S
C41   H42    0.94995       .     S
H42   C41    0.94995       .     S
C41   C43    1.37120   1_655     S
C43   C41    1.37120   1_455     S
C43   C44    1.36971       .     S
C44   C43    1.36971       .     S
C44   H45    0.94980       .     S
H45   C44    0.94980       .     S
C44   C46    1.38217       .     S
C46   C44    1.38217       .     S
C46   H47    0.94975       .     S
H47   C46    0.94975       .     S
C48   C49    1.38532       .     S
C49   C48    1.38532       .     S
C48   C56    1.39680       .     S
C56   C48    1.39680       .     S
C49   H50    0.95005       .     S
H50   C49    0.95005       .     S
C49   C51    1.39018       .     S
C51   C49    1.39018       .     S
C51   H52    0.95018       .     S
H52   C51    0.95018       .     S
C51   C53    1.37350       .     S
C53   C51    1.37350       .     S
C53   C54    1.37538       .     S
C54   C53    1.37538       .     S
C54   H55    0.94998       .     S
H55   C54    0.94998       .     S
C54   C56    1.38281       .     S
C56   C54    1.38281       .     S
C56   H57    0.95001       .     S
H57   C56    0.95001       .     S
H1    N0     0.90991       .     S
N0    H1     0.90991       .     S
H2    N0     0.91006   1_545     S
N0    H2     0.91006   1_565     S
H3    N0     0.90994   1_545     S
N0    H3     0.90994   1_565     S
C4    N0     1.46394       .     S
N0    C4     1.46394       .     S
C9    C4     1.37559       .     S
C4    C9     1.37559       .     S
C24   C4     1.37752       .     S
C4    C24    1.37752       .     S
H6    N5     0.90999       .     S
N5    H6     0.90999       .     S
H7    N5     0.90993       .     S
N5    H7     0.90993       .     S
H8    N5     0.90994       .     S
N5    H8     0.90994       .     S
C26   N5     1.46377       .     S
N5    C26    1.46377       .     S
H10   C9     0.95003       .     S
C9    H10    0.95003       .     S
C15   C9     1.38643       .     S
C9    C15    1.38643       .     S
H12   N11    0.90993       .     S
N11   H12    0.90993       .     S
H13   N11    0.91006   1_455     S
N11   H13    0.91006   1_655     S
H14   N11    0.90993       .     S
N11   H14    0.90993       .     S
C43   N11    1.46337   1_455     S
N11   C43    1.46337   1_655     S
H16   C15    0.94984       .     S
C15   H16    0.94984       .     S
C21   C15    1.39507       .     S
C15   C21    1.39507       .     S
H18   N17    0.90992       .     S
N17   H18    0.90992       .     S
H19   N17    0.91004       .     S
N17   H19    0.91004       .     S
H20   N17    0.91006       .     S
N17   H20    0.91006       .     S
C53   N17    1.45942       .     S
N17   C53    1.45942       .     S
C22   C21    1.39776       .     S
C21   C22    1.39776       .     S
C36   C21    1.49172       .     S
C21   C36    1.49172       .     S
H23   C22    0.94998       .     S
C22   H23    0.94998       .     S
C24   C22    1.38512       .     S
C22   C24    1.38512       .     S
H25   C24    0.95007       .     S
C24   H25    0.95007       .     S
C27   C26    1.38024       .     S
C26   C27    1.38024       .     S
C34   C26    1.38126       .     S
C26   C34    1.38126       .     S
H28   C27    0.95000       .     S
C27   H28    0.95000       .     S
C29   C27    1.38484       .     S
C27   C29    1.38484       .     S
H30   C29    0.94998       .     S
C29   H30    0.94998       .     S
C31   C29    1.39869       .     S
C29   C31    1.39869       .     S
C32   C31    1.39517       .     S
C31   C32    1.39517       .     S
C37   C31    1.49243       .     S
C31   C37    1.49243       .     S
H33   C32    0.94992       .     S
C32   H33    0.94992       .     S
C34   C32    1.37880       .     S
C32   C34    1.37880       .     S
H35   C34    0.94981       .     S
C34   H35    0.94981       .     S
C37   C36    1.35191       .     S
C36   C37    1.35191       .     S
C38   C36    1.50053       .     S
C36   C38    1.50053       .     S
C48   C37    1.49528       .     S
C37   C48    1.49528       .     S
C39   C38    1.38888       .     S
C38   C39    1.38888       .     S
C46   C38    1.38365       .     S
C38   C46    1.38365       .     S
H40   C39    0.95000       .     S
C39   H40    0.95000       .     S
C41   C39    1.38618   1_655     S
C39   C41    1.38618   1_455     S
H42   C41    0.94995       .     S
C41   H42    0.94995       .     S
C43   C41    1.37120   1_455     S
C41   C43    1.37120   1_655     S
C44   C43    1.36971       .     S
C43   C44    1.36971       .     S
H45   C44    0.94980       .     S
C44   H45    0.94980       .     S
C46   C44    1.38217       .     S
C44   C46    1.38217       .     S
H47   C46    0.94975       .     S
C46   H47    0.94975       .     S
C49   C48    1.38532       .     S
C48   C49    1.38532       .     S
C56   C48    1.39680       .     S
C48   C56    1.39680       .     S
H50   C49    0.95005       .     S
C49   H50    0.95005       .     S
C51   C49    1.39018       .     S
C49   C51    1.39018       .     S
H52   C51    0.95018       .     S
C51   H52    0.95018       .     S
C53   C51    1.37350       .     S
C51   C53    1.37350       .     S
C54   C53    1.37538       .     S
C53   C54    1.37538       .     S
H55   C54    0.94998       .     S
C54   H55    0.94998       .     S
C56   C54    1.38281       .     S
C54   C56    1.38281       .     S
H57   C56    0.95001       .     S
C56   H57    0.95001       .     S
