data_I
_chemical_name_common  '/data/user2/wty/HOF/MOFDiff/mofdiff/data/test/259-etta_cl2br2'
_cell_length_a 10.78510
_cell_length_b 12.03830
_cell_length_c 13.19340
_cell_angle_alpha 76.21300
_cell_angle_beta  71.07100
_cell_angle_gamma 86.44700
_space_group_name_H-M_alt      'P 1'


loop_
_space_group_symop_operation_xyz
  'x, y, z' 

loop_
_atom_site_label
_atom_site_fract_x
_atom_site_fract_y
_atom_site_fract_z
_atom_site_type_symbol
N0      0.3128    0.977   0.1151     N
H1     0.34462   0.9572  0.05074     H
H2     0.36911  0.02463  0.12038     H
H3     0.23644  0.01143  0.11954     H
N4      0.5461   0.3268   0.0668     N
H5     0.61693  0.37039  0.02692     H
H6     0.49154   0.3316  0.02782     H
H7     0.56988   0.2545   0.0843     H
N8      0.1956   0.1199   0.8555     N
H9     0.26068  0.07021  0.84656     H
H10    0.11976  0.08349  0.87213     H
H11    0.19383  0.15246  0.90984     H
N12     0.9888   0.6749   0.8964     N
H13    0.98351  0.74966  0.89316     H
H14    0.03355  0.64232  0.94152     H
H15    0.90853  0.64413  0.92154     H
C16     0.2936   0.8745   0.2049     C
C17     0.3169   0.8835   0.2998     C
H18    0.34422  0.95244  0.30649     H
C19      0.298   0.7863   0.3847     C
H20    0.31308  0.79061  0.44915     H
C21     0.2571   0.6823   0.3763     C
C22     0.2304   0.6777   0.2803     C
H23     0.2004  0.60983  0.27372     H
C24     0.2489   0.7745   0.1952     C
H25    0.23098   0.7717  0.13146     H
C26     0.4804   0.3663   0.1676     C
C27     0.5205   0.4696   0.1793     C
H28    0.58852  0.51317  0.12391     H
C29     0.4569   0.5055   0.2748     C
H30    0.48286  0.57396  0.28341     H
C31     0.3544    0.441   0.3589     C
C32     0.3197   0.3359   0.3448     C
H33    0.25402  0.29008  0.40061     H
C34     0.3819   0.3005   0.2495     C
H35    0.35711  0.23175  0.24057     H
C36     0.2414   0.5822   0.4716     C
C37     0.2824   0.4746   0.4638     C
C38     0.1791   0.6097   0.5813     C
C39     0.0534   0.6566    0.607     C
H40    0.01089  0.67314  0.55423     H
C41     0.9922   0.6786   0.7094     C
H42    0.90825  0.70846  0.72607     H
C43      0.056   0.6561   0.7864     C
C44     0.1802   0.6141   0.7624     C
H45    0.22342  0.60117  0.81457     H
C46      0.241   0.5909   0.6606     C
H47    0.32542  0.56214  0.64486     H
C48     0.1323   0.3495   0.6368     C
H49    0.06072  0.38742  0.62086     H
C50     0.2567   0.3799   0.5649     C
C51     0.1113   0.2645   0.7315     C
H52    0.02674  0.24606  0.77956     H
C53     0.2163   0.2077   0.7539     C
C54     0.3412   0.2333   0.6842     C
H55    0.41166  0.19349  0.70042     H
C56     0.3617   0.3188   0.5896     C
H57    0.44645  0.33604  0.54172     H
loop_
_geom_bond_atom_site_label_1
_geom_bond_atom_site_label_2
_geom_bond_distance
_geom_bond_site_symmetry_2
_ccdc_geom_bond_type
N0    H1     0.89043       .     S
H1    N0     0.89043       .     S
N0    H2     0.89000   1_565     S
H2    N0     0.89000   1_545     S
N0    H3     0.88962   1_565     S
H3    N0     0.88962   1_545     S
N0    C16    1.46453       .     S
C16   N0     1.46453       .     S
N4    H5     0.89055       .     S
H5    N4     0.89055       .     S
N4    H6     0.88996       .     S
H6    N4     0.88996       .     S
N4    H7     0.88972       .     S
H7    N4     0.88972       .     S
N4    C26    1.46461       .     S
C26   N4     1.46461       .     S
N8    H9     0.89009       .     S
H9    N8     0.89009       .     S
N8    H10    0.88964       .     S
H10   N8     0.88964       .     S
N8    H11    0.89001       .     S
H11   N8     0.89001       .     S
N8    C53    1.45727       .     S
C53   N8     1.45727       .     S
N12   H13    0.88991       .     S
H13   N12    0.88991       .     S
N12   H14    0.89039   1_655     S
H14   N12    0.89039   1_455     S
N12   H15    0.88971       .     S
H15   N12    0.88971       .     S
N12   C43    1.46168   1_655     S
C43   N12    1.46168   1_455     S
C16   C17    1.38372       .     S
C17   C16    1.38372       .     S
C16   C24    1.37237       .     S
C24   C16    1.37237       .     S
C17   H18    0.93031       .     S
H18   C17    0.93031       .     S
C17   C19    1.38641       .     S
C19   C17    1.38641       .     S
C19   H20    0.92950       .     S
H20   C19    0.92950       .     S
C19   C21    1.39306       .     S
C21   C19    1.39306       .     S
C21   C22    1.40079       .     S
C22   C21    1.40079       .     S
C21   C36    1.49220       .     S
C36   C21    1.49220       .     S
C22   H23    0.92982       .     S
H23   C22    0.92982       .     S
C22   C24    1.38500       .     S
C24   C22    1.38500       .     S
C24   H25    0.93029       .     S
H25   C24    0.93029       .     S
C26   C27    1.39956       .     S
C27   C26    1.39956       .     S
C26   C34    1.36937       .     S
C34   C26    1.36937       .     S
C27   H28    0.92979       .     S
H28   C27    0.92979       .     S
C27   C29    1.38090       .     S
C29   C27    1.38090       .     S
C29   H30    0.92971       .     S
H30   C29    0.92971       .     S
C29   C31    1.39859       .     S
C31   C29    1.39859       .     S
C31   C32    1.41120       .     S
C32   C31    1.41120       .     S
C31   C37    1.48750       .     S
C37   C31    1.48750       .     S
C32   H33    0.92987       .     S
H33   C32    0.92987       .     S
C32   C34    1.37304       .     S
C34   C32    1.37304       .     S
C34   H35    0.92988       .     S
H35   C34    0.92988       .     S
C36   C37    1.35904       .     S
C37   C36    1.35904       .     S
C36   C38    1.49186       .     S
C38   C36    1.49186       .     S
C37   C50    1.49338       .     S
C50   C37    1.49338       .     S
C38   C39    1.40348       .     S
C39   C38    1.40348       .     S
C38   C46    1.38315       .     S
C46   C38    1.38315       .     S
C39   H40    0.92966       .     S
H40   C39    0.92966       .     S
C39   C41    1.37889   1_455     S
C41   C39    1.37889   1_655     S
C41   H42    0.93032       .     S
H42   C41    0.93032       .     S
C41   C43    1.37045   1_655     S
C43   C41    1.37045   1_455     S
C43   C44    1.36652       .     S
C44   C43    1.36652       .     S
C44   H45    0.92917       .     S
H45   C44    0.92917       .     S
C44   C46    1.37716       .     S
C46   C44    1.37716       .     S
C46   H47    0.92978       .     S
H47   C46    0.92978       .     S
C48   H49    0.92978       .     S
H49   C48    0.92978       .     S
C48   C50    1.37968       .     S
C50   C48    1.37968       .     S
C48   C51    1.37665       .     S
C51   C48    1.37665       .     S
C50   C56    1.39699       .     S
C56   C50    1.39699       .     S
C51   H52    0.93053       .     S
H52   C51    0.93053       .     S
C51   C53    1.36460       .     S
C53   C51    1.36460       .     S
C53   C54    1.36670       .     S
C54   C53    1.36670       .     S
C54   H55    0.92975       .     S
H55   C54    0.92975       .     S
C54   C56    1.37946       .     S
C56   C54    1.37946       .     S
C56   H57    0.92951       .     S
H57   C56    0.92951       .     S
H1    N0     0.89043       .     S
N0    H1     0.89043       .     S
H2    N0     0.89000   1_545     S
N0    H2     0.89000   1_565     S
H3    N0     0.88962   1_545     S
N0    H3     0.88962   1_565     S
C16   N0     1.46453       .     S
N0    C16    1.46453       .     S
H5    N4     0.89055       .     S
N4    H5     0.89055       .     S
H6    N4     0.88996       .     S
N4    H6     0.88996       .     S
H7    N4     0.88972       .     S
N4    H7     0.88972       .     S
C26   N4     1.46461       .     S
N4    C26    1.46461       .     S
H9    N8     0.89009       .     S
N8    H9     0.89009       .     S
H10   N8     0.88964       .     S
N8    H10    0.88964       .     S
H11   N8     0.89001       .     S
N8    H11    0.89001       .     S
C53   N8     1.45727       .     S
N8    C53    1.45727       .     S
H13   N12    0.88991       .     S
N12   H13    0.88991       .     S
H14   N12    0.89039   1_455     S
N12   H14    0.89039   1_655     S
H15   N12    0.88971       .     S
N12   H15    0.88971       .     S
C43   N12    1.46168   1_455     S
N12   C43    1.46168   1_655     S
C17   C16    1.38372       .     S
C16   C17    1.38372       .     S
C24   C16    1.37237       .     S
C16   C24    1.37237       .     S
H18   C17    0.93031       .     S
C17   H18    0.93031       .     S
C19   C17    1.38641       .     S
C17   C19    1.38641       .     S
H20   C19    0.92950       .     S
C19   H20    0.92950       .     S
C21   C19    1.39306       .     S
C19   C21    1.39306       .     S
C22   C21    1.40079       .     S
C21   C22    1.40079       .     S
C36   C21    1.49220       .     S
C21   C36    1.49220       .     S
H23   C22    0.92982       .     S
C22   H23    0.92982       .     S
C24   C22    1.38500       .     S
C22   C24    1.38500       .     S
H25   C24    0.93029       .     S
C24   H25    0.93029       .     S
C27   C26    1.39956       .     S
C26   C27    1.39956       .     S
C34   C26    1.36937       .     S
C26   C34    1.36937       .     S
H28   C27    0.92979       .     S
C27   H28    0.92979       .     S
C29   C27    1.38090       .     S
C27   C29    1.38090       .     S
H30   C29    0.92971       .     S
C29   H30    0.92971       .     S
C31   C29    1.39859       .     S
C29   C31    1.39859       .     S
C32   C31    1.41120       .     S
C31   C32    1.41120       .     S
C37   C31    1.48750       .     S
C31   C37    1.48750       .     S
H33   C32    0.92987       .     S
C32   H33    0.92987       .     S
C34   C32    1.37304       .     S
C32   C34    1.37304       .     S
H35   C34    0.92988       .     S
C34   H35    0.92988       .     S
C37   C36    1.35904       .     S
C36   C37    1.35904       .     S
C38   C36    1.49186       .     S
C36   C38    1.49186       .     S
C50   C37    1.49338       .     S
C37   C50    1.49338       .     S
C39   C38    1.40348       .     S
C38   C39    1.40348       .     S
C46   C38    1.38315       .     S
C38   C46    1.38315       .     S
H40   C39    0.92966       .     S
C39   H40    0.92966       .     S
C41   C39    1.37889   1_655     S
C39   C41    1.37889   1_455     S
H42   C41    0.93032       .     S
C41   H42    0.93032       .     S
C43   C41    1.37045   1_455     S
C41   C43    1.37045   1_655     S
C44   C43    1.36652       .     S
C43   C44    1.36652       .     S
H45   C44    0.92917       .     S
C44   H45    0.92917       .     S
C46   C44    1.37716       .     S
C44   C46    1.37716       .     S
H47   C46    0.92978       .     S
C46   H47    0.92978       .     S
H49   C48    0.92978       .     S
C48   H49    0.92978       .     S
C50   C48    1.37968       .     S
C48   C50    1.37968       .     S
C51   C48    1.37665       .     S
C48   C51    1.37665       .     S
C56   C50    1.39699       .     S
C50   C56    1.39699       .     S
H52   C51    0.93053       .     S
C51   H52    0.93053       .     S
C53   C51    1.36460       .     S
C51   C53    1.36460       .     S
C54   C53    1.36670       .     S
C53   C54    1.36670       .     S
H55   C54    0.92975       .     S
C54   H55    0.92975       .     S
C56   C54    1.37946       .     S
C54   C56    1.37946       .     S
H57   C56    0.92951       .     S
C56   H57    0.92951       .     S
