data_I
_chemical_name_common  '/data/user2/wty/HOF/MOFDiff/mofdiff/data/test/259-etta_cl1br3'
_cell_length_a 10.84560
_cell_length_b 12.12760
_cell_length_c 13.23110
_cell_angle_alpha 75.87800
_cell_angle_beta  70.94800
_cell_angle_gamma 85.81400
_space_group_name_H-M_alt      'P 1'


loop_
_space_group_symop_operation_xyz
  'x, y, z' 

loop_
_atom_site_label
_atom_site_fract_x
_atom_site_fract_y
_atom_site_fract_z
_atom_site_type_symbol
C0      0.7052   0.1271   0.7942     C
C1      0.6796     0.12   0.6997     C
H2     0.65001  0.05255  0.69379     H
C3      0.6994   0.2157   0.6152     C
H4      0.6841  0.21247  0.55082     H
C5       0.742   0.3175   0.6244     C
C6      0.7684   0.3197   0.7179     C
H7     0.80011  0.38631  0.72364     H
C8       0.749    0.224   0.8048     C
H9     0.76577   0.2267  0.86876     H
C10     0.4807   0.5322   0.8206     C
H11    0.41342  0.48895  0.87603     H
C12     0.5442   0.4962   0.7247     C
H13    0.51829  0.42855  0.71602     H
C14     0.6459   0.5596   0.6415     C
C15     0.6809    0.661   0.6557     C
H16    0.74767  0.70492   0.6003     H
C17     0.6193   0.6978   0.7493     C
H18    0.64465  0.76602  0.75723     H
C19     0.5192   0.6336   0.8324     C
C20     0.7578   0.4188   0.5285     C
C21     0.7172   0.5244   0.5362     C
C22     0.8211   0.3912    0.418     C
C23     0.9447    0.343   0.3939     C
H24    0.98604  0.32505   0.4473     H
C25     0.0064   0.3216   0.2915     C
H26     0.0898  0.29102  0.27508     H
C27     0.9434   0.3459   0.2142     C
C28      0.824   0.3875   0.2357     C
H29    0.78211  0.40116  0.18276     H
C30     0.7604    0.411   0.3402     C
H31    0.67642   0.4403   0.3557     H
C32     0.7427   0.6201    0.436     C
C33     0.8687   0.6487    0.365     C
H34    0.93932   0.6092  0.38123     H
C35     0.8903   0.7358   0.2701     C
H36    0.97459   0.7549  0.22315     H
C37     0.7848   0.7929   0.2473     C
C38     0.6607   0.7681   0.3154     C
H39    0.59067  0.80855  0.29908     H
C40     0.6405   0.6812   0.4099     C
H41    0.55582  0.66375  0.45667     H
N42     0.4549   0.6732   0.9317     N
H43    0.43629   0.7466   0.9139     H
H44    0.50742  0.66342  0.97266     H
H45    0.38149  0.63368  0.96961     H
N46     0.8069   0.8812   0.1451     N
H47    0.81279  0.84907  0.09001     H
H48    0.88071  0.91838  0.13082     H
H49    0.74066  0.92968  0.15253     H
N50     0.0107   0.3243   0.1062     N
H51    0.97136  0.36173  0.05863     H
H52    0.00888  0.25012  0.11011     H
H53    0.09319  0.34789  0.08378     H
N54     0.6844   0.0236   0.8848     N
H55    0.62405  0.97973  0.88172     H
H56    0.65782  0.04342  0.94897     H
H57    0.75887  0.98555  0.87804     H
loop_
_geom_bond_atom_site_label_1
_geom_bond_atom_site_label_2
_geom_bond_distance
_geom_bond_site_symmetry_2
_ccdc_geom_bond_type
C0    C1     1.38943       .     S
C1    C0     1.38943       .     S
C0    C8     1.35343       .     S
C8    C0     1.35343       .     S
C0    N54    1.48120       .     S
N54   C0     1.48120       .     S
C1    H2     0.92960       .     S
H2    C1     0.92960       .     S
C1    C3     1.37462       .     S
C3    C1     1.37462       .     S
C3    H4     0.92961       .     S
H4    C3     0.92961       .     S
C3    C5     1.39493       .     S
C5    C3     1.39493       .     S
C5    C6     1.36440       .     S
C6    C5     1.36440       .     S
C5    C20    1.50890       .     S
C20   C5     1.50890       .     S
C6    H7     0.92961       .     S
H7    C6     0.92961       .     S
C6    C8     1.39278       .     S
C8    C6     1.39278       .     S
C8    H9     0.93015       .     S
H9    C8     0.93015       .     S
C10   H11    0.92964       .     S
H11   C10    0.92964       .     S
C10   C12    1.38955       .     S
C12   C10    1.38955       .     S
C10   C19    1.38643       .     S
C19   C10    1.38643       .     S
C12   H13    0.93058       .     S
H13   C12    0.93058       .     S
C12   C14    1.39201       .     S
C14   C12    1.39201       .     S
C14   C15    1.38532       .     S
C15   C14    1.38532       .     S
C14   C21    1.50333       .     S
C21   C14    1.50333       .     S
C15   H16    0.92987       .     S
H16   C15    0.92987       .     S
C15   C17    1.36574       .     S
C17   C15    1.36574       .     S
C17   H18    0.93032       .     S
H18   C17    0.93032       .     S
C17   C19    1.38568       .     S
C19   C17    1.38568       .     S
C19   N42    1.45052       .     S
N42   C19    1.45052       .     S
C20   C21    1.34032       .     S
C21   C20    1.34032       .     S
C20   C22    1.50694       .     S
C22   C20    1.50694       .     S
C21   C32    1.49592       .     S
C32   C21    1.49592       .     S
C22   C23    1.39207       .     S
C23   C22    1.39207       .     S
C22   C30    1.35993       .     S
C30   C22    1.35993       .     S
C23   H24    0.93012       .     S
H24   C23    0.93012       .     S
C23   C25    1.38027   1_655     S
C25   C23    1.38027   1_455     S
C25   H26    0.93003       .     S
H26   C25    0.93003       .     S
C25   C27    1.37095   1_455     S
C27   C25    1.37095   1_655     S
C27   C28    1.32157       .     S
C28   C27    1.32157       .     S
C27   N50    1.45503   1_655     S
N50   C27    1.45504   1_455     S
C28   H29    0.92986       .     S
H29   C28    0.92986       .     S
C28   C30    1.41764       .     S
C30   C28    1.41764       .     S
C30   H31    0.92966       .     S
H31   C30    0.92966       .     S
C32   C33    1.39368       .     S
C33   C32    1.39368       .     S
C32   C40    1.37915       .     S
C40   C32    1.37915       .     S
C33   H34    0.93050       .     S
H34   C33    0.93050       .     S
C33   C35    1.39433       .     S
C35   C33    1.39433       .     S
C35   H36    0.93017       .     S
H36   C35    0.93017       .     S
C35   C37    1.37386       .     S
C37   C35    1.37386       .     S
C37   C38    1.35978       .     S
C38   C37    1.35978       .     S
C37   N46    1.46696       .     S
N46   C37    1.46696       .     S
C38   H39    0.93012       .     S
H39   C38    0.93012       .     S
C38   C40    1.39064       .     S
C40   C38    1.39064       .     S
C40   H41    0.92985       .     S
H41   C40    0.92985       .     S
N42   H43    0.88944       .     S
H43   N42    0.88944       .     S
N42   H44    0.89024       .     S
H44   N42    0.89024       .     S
N42   H45    0.89044       .     S
H45   N42    0.89044       .     S
N46   H47    0.88982       .     S
H47   N46    0.88982       .     S
N46   H48    0.89006       .     S
H48   N46    0.89006       .     S
N46   H49    0.88988       .     S
H49   N46    0.88988       .     S
N50   H51    0.88987   1_455     S
H51   N50    0.88987   1_655     S
N50   H52    0.88972       .     S
H52   N50    0.88972       .     S
N50   H53    0.89047       .     S
H53   N50    0.89047       .     S
N54   H55    0.88993   1_545     S
H55   N54    0.88993   1_565     S
N54   H56    0.88962       .     S
H56   N54    0.88962       .     S
N54   H57    0.88986   1_545     S
H57   N54    0.88986   1_565     S
C1    C0     1.38943       .     S
C0    C1     1.38943       .     S
C8    C0     1.35343       .     S
C0    C8     1.35343       .     S
N54   C0     1.48120       .     S
C0    N54    1.48120       .     S
H2    C1     0.92960       .     S
C1    H2     0.92960       .     S
C3    C1     1.37462       .     S
C1    C3     1.37462       .     S
H4    C3     0.92961       .     S
C3    H4     0.92961       .     S
C5    C3     1.39493       .     S
C3    C5     1.39493       .     S
C6    C5     1.36440       .     S
C5    C6     1.36440       .     S
C20   C5     1.50890       .     S
C5    C20    1.50890       .     S
H7    C6     0.92961       .     S
C6    H7     0.92961       .     S
C8    C6     1.39278       .     S
C6    C8     1.39278       .     S
H9    C8     0.93015       .     S
C8    H9     0.93015       .     S
H11   C10    0.92964       .     S
C10   H11    0.92964       .     S
C12   C10    1.38955       .     S
C10   C12    1.38955       .     S
C19   C10    1.38643       .     S
C10   C19    1.38643       .     S
H13   C12    0.93058       .     S
C12   H13    0.93058       .     S
C14   C12    1.39201       .     S
C12   C14    1.39201       .     S
C15   C14    1.38532       .     S
C14   C15    1.38532       .     S
C21   C14    1.50333       .     S
C14   C21    1.50333       .     S
H16   C15    0.92987       .     S
C15   H16    0.92987       .     S
C17   C15    1.36574       .     S
C15   C17    1.36574       .     S
H18   C17    0.93032       .     S
C17   H18    0.93032       .     S
C19   C17    1.38568       .     S
C17   C19    1.38568       .     S
N42   C19    1.45052       .     S
C19   N42    1.45052       .     S
C21   C20    1.34032       .     S
C20   C21    1.34032       .     S
C22   C20    1.50694       .     S
C20   C22    1.50694       .     S
C32   C21    1.49592       .     S
C21   C32    1.49592       .     S
C23   C22    1.39207       .     S
C22   C23    1.39207       .     S
C30   C22    1.35993       .     S
C22   C30    1.35993       .     S
H24   C23    0.93012       .     S
C23   H24    0.93012       .     S
C25   C23    1.38027   1_455     S
C23   C25    1.38027   1_655     S
H26   C25    0.93003       .     S
C25   H26    0.93003       .     S
C27   C25    1.37095   1_655     S
C25   C27    1.37095   1_455     S
C28   C27    1.32157       .     S
C27   C28    1.32157       .     S
N50   C27    1.45504   1_455     S
C27   N50    1.45503   1_655     S
H29   C28    0.92986       .     S
C28   H29    0.92986       .     S
C30   C28    1.41764       .     S
C28   C30    1.41764       .     S
H31   C30    0.92966       .     S
C30   H31    0.92966       .     S
C33   C32    1.39368       .     S
C32   C33    1.39368       .     S
C40   C32    1.37915       .     S
C32   C40    1.37915       .     S
H34   C33    0.93050       .     S
C33   H34    0.93050       .     S
C35   C33    1.39433       .     S
C33   C35    1.39433       .     S
H36   C35    0.93017       .     S
C35   H36    0.93017       .     S
C37   C35    1.37386       .     S
C35   C37    1.37386       .     S
C38   C37    1.35978       .     S
C37   C38    1.35978       .     S
N46   C37    1.46696       .     S
C37   N46    1.46696       .     S
H39   C38    0.93012       .     S
C38   H39    0.93012       .     S
C40   C38    1.39064       .     S
C38   C40    1.39064       .     S
H41   C40    0.92985       .     S
C40   H41    0.92985       .     S
H43   N42    0.88944       .     S
N42   H43    0.88944       .     S
H44   N42    0.89024       .     S
N42   H44    0.89024       .     S
H45   N42    0.89044       .     S
N42   H45    0.89044       .     S
H47   N46    0.88982       .     S
N46   H47    0.88982       .     S
H48   N46    0.89006       .     S
N46   H48    0.89006       .     S
H49   N46    0.88988       .     S
N46   H49    0.88988       .     S
H51   N50    0.88987   1_655     S
N50   H51    0.88987   1_455     S
H52   N50    0.88972       .     S
N50   H52    0.88972       .     S
H53   N50    0.89047       .     S
N50   H53    0.89047       .     S
H55   N54    0.88993   1_565     S
N54   H55    0.88993   1_545     S
H56   N54    0.88962       .     S
N54   H56    0.88962       .     S
H57   N54    0.88986   1_565     S
N54   H57    0.88986   1_545     S
