data_I
_chemical_name_common  '/data/user2/wty/HOF/MOFDiff/mofdiff/data/test/259-etta_br'
_cell_length_a 10.89000
_cell_length_b 12.25340
_cell_length_c 13.21820
_cell_angle_alpha 75.80000
_cell_angle_beta  70.85600
_cell_angle_gamma 85.45700
_space_group_name_H-M_alt      'P 1'


loop_
_space_group_symop_operation_xyz
  'x, y, z' 

loop_
_atom_site_label
_atom_site_fract_x
_atom_site_fract_y
_atom_site_fract_z
_atom_site_type_symbol
N0      0.6828   0.0251   0.8837     N
H1     0.75708  0.98722  0.87685     H
H2     0.62256  0.98169  0.88121     H
H3     0.65655  0.04516  0.94781     H
N4       0.456   0.6702   0.9344     N
H5     0.43075  0.74113  0.91606     H
H6     0.51079  0.66678  0.97244     H
H7     0.38695   0.6273  0.97552     H
N8      0.0108   0.3259   0.1053     N
H9     0.95912  0.34488  0.06373     H
H10    0.03198  0.25356  0.11093     H
H11    0.08254  0.36781  0.07461     H
N12     0.8082   0.8759   0.1471     N
H13    0.80901  0.84482  0.09267     H
H14    0.88397  0.90973   0.1304     H
H15    0.74439  0.92625  0.15639     H
C16     0.7027   0.1263   0.7933     C
C17     0.6801   0.1216      0.7     C
H18    0.65366  0.05451  0.69243     H
C19      0.697   0.2186   0.6148     C
H20    0.67953  0.21653    0.551     H
C21     0.7392   0.3166    0.625     C
C22     0.7674   0.3175   0.7204     C
H23    0.79956  0.38256  0.72711     H
C24     0.7478    0.222   0.8049     C
H25    0.76509  0.22272  0.86916     H
C26     0.5213   0.6298   0.8343     C
C27     0.4808   0.5315   0.8218     C
H28    0.41184  0.49049  0.87648     H
C29     0.5439   0.4948   0.7272     C
H30     0.5174   0.4283  0.71854     H
C31     0.6469   0.5559   0.6443     C
C32     0.6846   0.6558   0.6594     C
H33    0.75281  0.69797  0.60493     H
C34     0.6214   0.6924   0.7542     C
H35    0.64671  0.75896  0.76363     H
C36     0.7569   0.4168     0.53     C
C37     0.7175   0.5218   0.5387     C
C38     0.8202   0.3905   0.4192     C
C39     0.9396   0.3394   0.3965     C
H40    0.97957   0.3193  0.45075     H
C41     0.0009   0.3174   0.2948     C
H42    0.08242  0.28359  0.28013     H
C43     0.9423   0.3451   0.2159     C
C44     0.8208   0.3924   0.2368     C
H45    0.78032  0.40963  0.18284     H
C46     0.7596   0.4139   0.3397     C
H47    0.67648  0.44456   0.3554     H
C48     0.7445   0.6176   0.4371     C
C49     0.8695   0.6448   0.3678     C
H50    0.93961  0.60584  0.38496     H
C51     0.8911   0.7305   0.2724     C
H52    0.97504  0.74841  0.22503     H
C53     0.7869   0.7877   0.2496     C
C54     0.6628   0.7641   0.3178     C
H55    0.59321  0.80412  0.30067     H
C56     0.6421   0.6799   0.4125     C
H57    0.55799  0.66487  0.46067     H
loop_
_geom_bond_atom_site_label_1
_geom_bond_atom_site_label_2
_geom_bond_distance
_geom_bond_site_symmetry_2
_ccdc_geom_bond_type
N0    H1     0.88943   1_545     S
H1    N0     0.88943   1_565     S
N0    H2     0.89017   1_545     S
H2    N0     0.89017   1_565     S
N0    H3     0.89019       .     S
H3    N0     0.89019       .     S
N0    C16    1.46911       .     S
C16   N0     1.46911       .     S
N4    H5     0.89009       .     S
H5    N4     0.89009       .     S
N4    H6     0.89054       .     S
H6    N4     0.89054       .     S
N4    H7     0.88970       .     S
H7    N4     0.88970       .     S
N4    C26    1.46626       .     S
C26   N4     1.46626       .     S
N8    H9     0.89003   1_455     S
H9    N8     0.89003   1_655     S
N8    H10    0.88936       .     S
H10   N8     0.88936       .     S
N8    H11    0.89001       .     S
H11   N8     0.89001       .     S
N8    C43    1.47469   1_455     S
C43   N8     1.47469   1_655     S
N12   H13    0.89021       .     S
H13   N12    0.89021       .     S
N12   H14    0.88952       .     S
H14   N12    0.88952       .     S
N12   H15    0.88988       .     S
H15   N12    0.88988       .     S
N12   C53    1.47400       .     S
C53   N12    1.47400       .     S
C16   C17    1.34944       .     S
C17   C16    1.34944       .     S
C16   C24    1.36700       .     S
C24   C16    1.36700       .     S
C17   H18    0.93031       .     S
H18   C17    0.93031       .     S
C17   C19    1.39889       .     S
C19   C17    1.39889       .     S
C19   H20    0.92979       .     S
H20   C19    0.92979       .     S
C19   C21    1.37072       .     S
C21   C19    1.37072       .     S
C21   C22    1.39497       .     S
C22   C21    1.39497       .     S
C21   C36    1.49793       .     S
C36   C21    1.49793       .     S
C22   H23    0.93024       .     S
H23   C22    0.93024       .     S
C22   C24    1.38001       .     S
C24   C22    1.38001       .     S
C24   H25    0.93051       .     S
H25   C24    0.93051       .     S
C26   C27    1.37922       .     S
C27   C26    1.37922       .     S
C26   C34    1.36920       .     S
C34   C26    1.36920       .     S
C27   H28    0.92977       .     S
H28   C27    0.92977       .     S
C27   C29    1.37891       .     S
C29   C27    1.37891       .     S
C29   H30    0.93008       .     S
H30   C29    0.93008       .     S
C29   C31    1.39420       .     S
C31   C29    1.39420       .     S
C31   C32    1.40003       .     S
C32   C31    1.40003       .     S
C31   C37    1.49848       .     S
C37   C31    1.49848       .     S
C32   H33    0.92987       .     S
H33   C32    0.92987       .     S
C32   C34    1.38065       .     S
C34   C32    1.38065       .     S
C34   H35    0.92990       .     S
H35   C34    0.92990       .     S
C36   C37    1.34367       .     S
C37   C36    1.34367       .     S
C36   C38    1.50274       .     S
C38   C36    1.50274       .     S
C37   C48    1.51336       .     S
C48   C37    1.51336       .     S
C38   C39    1.37116       .     S
C39   C38    1.37116       .     S
C38   C46    1.37806       .     S
C46   C38    1.37806       .     S
C39   H40    0.93028       .     S
H40   C39    0.93028       .     S
C39   C41    1.37336   1_655     S
C41   C39    1.37336   1_455     S
C41   H42    0.93037       .     S
H42   C41    0.93037       .     S
C41   C43    1.35597   1_455     S
C43   C41    1.35597   1_655     S
C43   C44    1.37122       .     S
C44   C43    1.37122       .     S
C44   H45    0.93018       .     S
H45   C44    0.93018       .     S
C44   C46    1.38457       .     S
C46   C44    1.38457       .     S
C46   H47    0.92991       .     S
H47   C46    0.92991       .     S
C48   C49    1.38109       .     S
C49   C48    1.38109       .     S
C48   C56    1.38319       .     S
C56   C48    1.38319       .     S
C49   H50    0.93005       .     S
H50   C49    0.93005       .     S
C49   C51    1.39396       .     S
C51   C49    1.39396       .     S
C51   H52    0.92993       .     S
H52   C51    0.92993       .     S
C51   C53    1.36543       .     S
C53   C51    1.36543       .     S
C53   C54    1.36296       .     S
C54   C53    1.36296       .     S
C54   H55    0.93019       .     S
H55   C54    0.93019       .     S
C54   C56    1.37853       .     S
C56   C54    1.37853       .     S
C56   H57    0.93004       .     S
H57   C56    0.93004       .     S
H1    N0     0.88943   1_565     S
N0    H1     0.88943   1_545     S
H2    N0     0.89017   1_565     S
N0    H2     0.89017   1_545     S
H3    N0     0.89019       .     S
N0    H3     0.89019       .     S
C16   N0     1.46911       .     S
N0    C16    1.46911       .     S
H5    N4     0.89009       .     S
N4    H5     0.89009       .     S
H6    N4     0.89054       .     S
N4    H6     0.89054       .     S
H7    N4     0.88970       .     S
N4    H7     0.88970       .     S
C26   N4     1.46626       .     S
N4    C26    1.46626       .     S
H9    N8     0.89003   1_655     S
N8    H9     0.89003   1_455     S
H10   N8     0.88936       .     S
N8    H10    0.88936       .     S
H11   N8     0.89001       .     S
N8    H11    0.89001       .     S
C43   N8     1.47469   1_655     S
N8    C43    1.47469   1_455     S
H13   N12    0.89021       .     S
N12   H13    0.89021       .     S
H14   N12    0.88952       .     S
N12   H14    0.88952       .     S
H15   N12    0.88988       .     S
N12   H15    0.88988       .     S
C53   N12    1.47400       .     S
N12   C53    1.47400       .     S
C17   C16    1.34944       .     S
C16   C17    1.34944       .     S
C24   C16    1.36700       .     S
C16   C24    1.36700       .     S
H18   C17    0.93031       .     S
C17   H18    0.93031       .     S
C19   C17    1.39889       .     S
C17   C19    1.39889       .     S
H20   C19    0.92979       .     S
C19   H20    0.92979       .     S
C21   C19    1.37072       .     S
C19   C21    1.37072       .     S
C22   C21    1.39497       .     S
C21   C22    1.39497       .     S
C36   C21    1.49793       .     S
C21   C36    1.49793       .     S
H23   C22    0.93024       .     S
C22   H23    0.93024       .     S
C24   C22    1.38001       .     S
C22   C24    1.38001       .     S
H25   C24    0.93051       .     S
C24   H25    0.93051       .     S
C27   C26    1.37922       .     S
C26   C27    1.37922       .     S
C34   C26    1.36920       .     S
C26   C34    1.36920       .     S
H28   C27    0.92977       .     S
C27   H28    0.92977       .     S
C29   C27    1.37891       .     S
C27   C29    1.37891       .     S
H30   C29    0.93008       .     S
C29   H30    0.93008       .     S
C31   C29    1.39420       .     S
C29   C31    1.39420       .     S
C32   C31    1.40003       .     S
C31   C32    1.40003       .     S
C37   C31    1.49848       .     S
C31   C37    1.49848       .     S
H33   C32    0.92987       .     S
C32   H33    0.92987       .     S
C34   C32    1.38065       .     S
C32   C34    1.38065       .     S
H35   C34    0.92990       .     S
C34   H35    0.92990       .     S
C37   C36    1.34367       .     S
C36   C37    1.34367       .     S
C38   C36    1.50274       .     S
C36   C38    1.50274       .     S
C48   C37    1.51336       .     S
C37   C48    1.51336       .     S
C39   C38    1.37116       .     S
C38   C39    1.37116       .     S
C46   C38    1.37806       .     S
C38   C46    1.37806       .     S
H40   C39    0.93028       .     S
C39   H40    0.93028       .     S
C41   C39    1.37336   1_455     S
C39   C41    1.37336   1_655     S
H42   C41    0.93037       .     S
C41   H42    0.93037       .     S
C43   C41    1.35597   1_655     S
C41   C43    1.35597   1_455     S
C44   C43    1.37122       .     S
C43   C44    1.37122       .     S
H45   C44    0.93018       .     S
C44   H45    0.93018       .     S
C46   C44    1.38457       .     S
C44   C46    1.38457       .     S
H47   C46    0.92991       .     S
C46   H47    0.92991       .     S
C49   C48    1.38109       .     S
C48   C49    1.38109       .     S
C56   C48    1.38319       .     S
C48   C56    1.38319       .     S
H50   C49    0.93005       .     S
C49   H50    0.93005       .     S
C51   C49    1.39396       .     S
C49   C51    1.39396       .     S
H52   C51    0.92993       .     S
C51   H52    0.92993       .     S
C53   C51    1.36543       .     S
C51   C53    1.36543       .     S
C54   C53    1.36296       .     S
C53   C54    1.36296       .     S
H55   C54    0.93019       .     S
C54   H55    0.93019       .     S
C56   C54    1.37853       .     S
C54   C56    1.37853       .     S
H57   C56    0.93004       .     S
C56   H57    0.93004       .     S
