data_I
_chemical_name_common  '/data/user2/wty/HOF/MOFDiff/mofdiff/data/test/260-hof-nbda'
_cell_length_a 14.91940
_cell_length_b 28.77110
_cell_length_c 49.95800
_cell_angle_alpha 90.00000
_cell_angle_beta  90.00000
_cell_angle_gamma 90.00000
_space_group_name_H-M_alt      'P 1'


loop_
_space_group_symop_operation_xyz
  'x, y, z' 

loop_
_atom_site_label
_atom_site_fract_x
_atom_site_fract_y
_atom_site_fract_z
_atom_site_type_symbol
O0     0.36546  0.45928  0.73843     O
O1     0.36346   0.4982  0.70009     O
O2     0.40451  0.03764  0.48593     O
O3     0.39396   0.0769  0.52397     O
O4      0.3857  0.12155    0.401     O
O5     0.38557  0.19898  0.40082     O
N6       0.375    0.375  0.54156     N
C7     0.36626  0.46119  0.71319     C
H8     0.35481  0.48682  0.74582     H
H9       0.378  0.19883  0.38341     H
C10      0.375    0.375  0.71241     C
H11      0.375    0.375  0.73103     H
C12    0.37017  0.41636  0.67055     C
H13    0.36648  0.44444  0.66139     H
C14      0.375    0.375  0.65613     C
C15    0.37074  0.41645  0.69835     C
C16      0.375    0.375  0.62645     C
C17    0.41281  0.41128  0.61194     C
H18    0.43816  0.43619  0.62107     H
C19    0.41365  0.41123   0.5843     C
H20    0.44041  0.43573  0.57517     H
C21      0.375    0.375  0.56996     C
C22     0.3822  0.33259  0.52724     C
C23    0.43761  0.29692  0.53607     C
H24    0.47171  0.30096  0.55148     H
C25    0.44244  0.25561  0.52218     C
H26    0.47894  0.23192  0.52862     H
C27    0.39402  0.24853  0.49875     C
C28     0.3401  0.28486  0.48991     C
H29    0.30767  0.28131  0.47414     H
C30    0.33351  0.32588  0.50387     C
H31    0.29611  0.34934  0.49761     H
C32    0.39742  0.20381  0.48403     C
C33    0.40093  0.16152  0.49766     C
H34    0.40401  0.16145  0.51625     H
C35    0.39991   0.1196  0.48397     C
C36     0.3957  0.11884  0.45625     C
H37    0.39461  0.09074  0.44705     H
C38    0.39316  0.16055  0.44251     C
C39     0.3938  0.20249  0.45617     C
H40    0.39177  0.23018  0.44659     H
C41    0.38819  0.16018  0.41276     C
C42    0.39976  0.07492  0.49893     C
H43    0.39363  0.04951  0.53222     H
H44     0.3776  0.12286  0.38306     H
loop_
_geom_bond_atom_site_label_1
_geom_bond_atom_site_label_2
_geom_bond_distance
_geom_bond_site_symmetry_2
_ccdc_geom_bond_type
O0    C7     1.26219       .     S
C7    O0     1.26219       .     S
O0    H8     0.88847       .     S
H8    O0     0.88847       .     S
O1    C7     1.25056       .     S
C7    O1     1.25056       .     S
O2    C42    1.25589       .     S
C42   O2     1.25589       .     S
O3    C42    1.25523       .     S
C42   O3     1.25523       .     S
O3    H43    0.88933       .     S
H43   O3     0.88933       .     S
O4    C41    1.25770       .     S
C41   O4     1.25770       .     S
O4    H44    0.90514       .     S
H44   O4     0.90514       .     S
O5    H9     0.87708       .     S
H9    O5     0.87708       .     S
O5    C41    1.26630       .     S
C41   O5     1.26630       .     S
N6    C21    1.41881       .     S
C21   N6     1.41881       .     S
N6    C22    1.41851       .     S
C22   N6     1.41851       .     S
C7    C15    1.48696       .     S
C15   C7     1.48696       .     S
C10   H11    0.93022       .     S
H11   C10    0.93022       .     S
C10   C15    1.38550       .     S
C15   C10    1.38550       .     S
C12   H13    0.93013       .     S
H13   C12    0.93013       .     S
C12   C14    1.39291       .     S
C14   C12    1.39291       .     S
C12   C15    1.38886       .     S
C15   C12    1.38886       .     S
C14   C16    1.48275       .     S
C16   C14    1.48275       .     S
C16   C17    1.39041       .     S
C17   C16    1.39041       .     S
C17   H18    0.92991       .     S
H18   C17    0.92991       .     S
C17   C19    1.38090       .     S
C19   C17    1.38090       .     S
C19   H20    0.92968       .     S
H20   C19    0.92968       .     S
C19   C21    1.39007       .     S
C21   C19    1.39007       .     S
C22   C23    1.38968       .     S
C23   C22    1.38968       .     S
C22   C30    1.38855       .     S
C30   C22    1.38855       .     S
C23   H24    0.93006       .     S
H24   C23    0.93006       .     S
C23   C25    1.37816       .     S
C25   C23    1.37816       .     S
C25   H26    0.92985       .     S
H26   C25    0.92985       .     S
C25   C27    1.39049       .     S
C27   C25    1.39049       .     S
C27   C28    1.39095       .     S
C28   C27    1.39095       .     S
C27   C32    1.48284       .     S
C32   C27    1.48284       .     S
C28   H29    0.93017       .     S
H29   C28    0.93017       .     S
C28   C30    1.37437       .     S
C30   C28    1.37437       .     S
C30   H31    0.92991       .     S
H31   C30    0.92991       .     S
C32   C33    1.39529       .     S
C33   C32    1.39529       .     S
C32   C39    1.39340       .     S
C39   C32    1.39340       .     S
C33   H34    0.92986       .     S
H34   C33    0.92986       .     S
C33   C35    1.38659       .     S
C35   C33    1.38659       .     S
C35   C36    1.38643       .     S
C36   C35    1.38643       .     S
C35   C42    1.48696       .     S
C42   C35    1.48696       .     S
C36   H37    0.93012       .     S
H37   C36    0.93012       .     S
C36   C38    1.38301       .     S
C38   C36    1.38301       .     S
C38   C39    1.38630       .     S
C39   C38    1.38630       .     S
C38   C41    1.48814       .     S
C41   C38    1.48814       .     S
C39   H40    0.92987       .     S
H40   C39    0.92987       .     S
C7    O0     1.26219       .     S
O0    C7     1.26219       .     S
H8    O0     0.88847       .     S
O0    H8     0.88847       .     S
C7    O1     1.25056       .     S
O1    C7     1.25056       .     S
C42   O2     1.25589       .     S
O2    C42    1.25589       .     S
C42   O3     1.25523       .     S
O3    C42    1.25523       .     S
H43   O3     0.88933       .     S
O3    H43    0.88933       .     S
C41   O4     1.25770       .     S
O4    C41    1.25770       .     S
H44   O4     0.90514       .     S
O4    H44    0.90514       .     S
H9    O5     0.87708       .     S
O5    H9     0.87708       .     S
C41   O5     1.26630       .     S
O5    C41    1.26630       .     S
C21   N6     1.41881       .     S
N6    C21    1.41881       .     S
C22   N6     1.41851       .     S
N6    C22    1.41851       .     S
C15   C7     1.48696       .     S
C7    C15    1.48696       .     S
H11   C10    0.93022       .     S
C10   H11    0.93022       .     S
C15   C10    1.38550       .     S
C10   C15    1.38550       .     S
H13   C12    0.93013       .     S
C12   H13    0.93013       .     S
C14   C12    1.39291       .     S
C12   C14    1.39291       .     S
C15   C12    1.38886       .     S
C12   C15    1.38886       .     S
C16   C14    1.48275       .     S
C14   C16    1.48275       .     S
C17   C16    1.39041       .     S
C16   C17    1.39041       .     S
H18   C17    0.92991       .     S
C17   H18    0.92991       .     S
C19   C17    1.38090       .     S
C17   C19    1.38090       .     S
H20   C19    0.92968       .     S
C19   H20    0.92968       .     S
C21   C19    1.39007       .     S
C19   C21    1.39007       .     S
C23   C22    1.38968       .     S
C22   C23    1.38968       .     S
C30   C22    1.38855       .     S
C22   C30    1.38855       .     S
H24   C23    0.93006       .     S
C23   H24    0.93006       .     S
C25   C23    1.37816       .     S
C23   C25    1.37816       .     S
H26   C25    0.92985       .     S
C25   H26    0.92985       .     S
C27   C25    1.39049       .     S
C25   C27    1.39049       .     S
C28   C27    1.39095       .     S
C27   C28    1.39095       .     S
C32   C27    1.48284       .     S
C27   C32    1.48284       .     S
H29   C28    0.93017       .     S
C28   H29    0.93017       .     S
C30   C28    1.37437       .     S
C28   C30    1.37437       .     S
H31   C30    0.92991       .     S
C30   H31    0.92991       .     S
C33   C32    1.39529       .     S
C32   C33    1.39529       .     S
C39   C32    1.39340       .     S
C32   C39    1.39340       .     S
H34   C33    0.92986       .     S
C33   H34    0.92986       .     S
C35   C33    1.38659       .     S
C33   C35    1.38659       .     S
C36   C35    1.38643       .     S
C35   C36    1.38643       .     S
C42   C35    1.48696       .     S
C35   C42    1.48696       .     S
H37   C36    0.93012       .     S
C36   H37    0.93012       .     S
C38   C36    1.38301       .     S
C36   C38    1.38301       .     S
C39   C38    1.38630       .     S
C38   C39    1.38630       .     S
C41   C38    1.48814       .     S
C38   C41    1.48814       .     S
H40   C39    0.92987       .     S
C39   H40    0.92987       .     S
