data_I
_chemical_name_common  '/data/user2/wty/HOF/MOFDiff/mofdiff/data/test/263-tptca-2'
_cell_length_a  7.34630
_cell_length_b 26.55780
_cell_length_c 15.19160
_cell_angle_alpha 90.00000
_cell_angle_beta  92.14900
_cell_angle_gamma 90.00000
_space_group_name_H-M_alt      'P 1'


loop_
_space_group_symop_operation_xyz
  'x, y, z' 

loop_
_atom_site_label
_atom_site_fract_x
_atom_site_fract_y
_atom_site_fract_z
_atom_site_type_symbol
O0     0.61834  0.74718  0.34985     O
H1     0.56876  0.75869  0.30497     H
O2     0.54455  0.67473  0.28431     O
O3      0.5312   0.2933  0.28743     O
O4     0.60405  0.22087  0.35329     O
H5     0.55351  0.20928  0.30872     H
C6        0.75  0.53695      0.5     C
C7        0.75  0.43099      0.5     C
C8        0.75  0.37506      0.5     C
C9     0.68742  0.61995  0.42632     C
H10    0.64583  0.60271  0.37621     H
C11    0.68611  0.67202  0.42648     C
C12       0.75  0.59285      0.5     C
C13    0.78302  0.51005  0.42404     C
H14     0.8062  0.52728  0.37236     H
C15    0.68029  0.34816  0.42767     C
H16     0.6334  0.36543  0.37862     H
C17    0.78201  0.45788  0.42392     C
H18    0.80314  0.44065  0.37201     H
C19    0.67986  0.29607  0.42782     C
C20       0.75  0.69872      0.5     C
H21       0.75  0.73374      0.5     H
C22     0.6111  0.69928   0.3476     C
C23    0.59913  0.26873  0.35021     C
C24       0.75   0.2693      0.5     C
H25       0.75  0.23428      0.5     H
O26    0.88166  0.74718  0.65015     O
H27    0.93124  0.75869  0.69503     H
O28    0.95545  0.67473  0.71569     O
O29     0.9688   0.2933  0.71257     O
O30    0.89595  0.22087  0.64671     O
H31     0.9465  0.20928  0.69128     H
C32    0.81258  0.61995  0.57368     C
H33    0.85417  0.60271  0.62379     H
C34    0.81389  0.67202  0.57352     C
C35    0.71698  0.51005  0.57596     C
H36     0.6938  0.52728  0.62763     H
C37    0.81971  0.34816  0.57233     C
H38     0.8666  0.36543  0.62137     H
C39    0.71799  0.45788  0.57608     C
H40    0.69686  0.44065  0.62799     H
C41    0.82014  0.29607  0.57218     C
C42     0.8889  0.69928   0.6524     C
C43    0.90087  0.26873  0.64979     C
loop_
_geom_bond_atom_site_label_1
_geom_bond_atom_site_label_2
_geom_bond_distance
_geom_bond_site_symmetry_2
_ccdc_geom_bond_type
O0    H1     0.81996       .     S
H1    O0     0.81996       .     S
O0    C22    1.27363       .     S
C22   O0     1.27363       .     S
O2    C22    1.24631       .     S
C22   O2     1.24631       .     S
O3    C23    1.24448       .     S
C23   O3     1.24448       .     S
O4    H5     0.81987       .     S
H5    O4     0.81987       .     S
O4    C23    1.27238       .     S
C23   O4     1.27238       .     S
C6    C12    1.48458       .     S
C12   C6     1.48458       .     S
C6    C13    1.38630       .     S
C13   C6     1.38630       .     S
C6    C35    1.38630       .     S
C35   C6     1.38630       .     S
C7    C8     1.48538       .     S
C8    C7     1.48538       .     S
C7    C17    1.38618       .     S
C17   C7     1.38618       .     S
C7    C39    1.38618       .     S
C39   C7     1.38618       .     S
C8    C15    1.39205       .     S
C15   C8     1.39205       .     S
C8    C37    1.39205       .     S
C37   C8     1.39205       .     S
C9    H10    0.93008       .     S
H10   C9     0.93008       .     S
C9    C11    1.38290       .     S
C11   C9     1.38290       .     S
C9    C12    1.39414       .     S
C12   C9     1.39414       .     S
C11   C20    1.38969       .     S
C20   C11    1.38969       .     S
C11   C22    1.48802       .     S
C22   C11    1.48802       .     S
C12   C32    1.39414       .     S
C32   C12    1.39414       .     S
C13   H14    0.92994       .     S
H14   C13    0.92994       .     S
C13   C17    1.38554       .     S
C17   C13    1.38554       .     S
C15   H16    0.93006       .     S
H16   C15    0.93006       .     S
C15   C19    1.38340       .     S
C19   C15    1.38340       .     S
C17   H18    0.92981       .     S
H18   C17    0.92981       .     S
C19   C23    1.48882       .     S
C23   C19    1.48882       .     S
C19   C24    1.38959       .     S
C24   C19    1.38959       .     S
C20   H21    0.93005       .     S
H21   C20    0.93005       .     S
C20   C34    1.38969       .     S
C34   C20    1.38969       .     S
C24   H25    0.93005       .     S
H25   C24    0.93005       .     S
C24   C41    1.38959       .     S
C41   C24    1.38959       .     S
O26   H27    0.81996       .     S
H27   O26    0.81996       .     S
O26   C42    1.27363       .     S
C42   O26    1.27363       .     S
O28   C42    1.24632       .     S
C42   O28    1.24632       .     S
O29   C43    1.24448       .     S
C43   O29    1.24448       .     S
O30   H31    0.81990       .     S
H31   O30    0.81990       .     S
O30   C43    1.27238       .     S
C43   O30    1.27238       .     S
C32   H33    0.93008       .     S
H33   C32    0.93008       .     S
C32   C34    1.38290       .     S
C34   C32    1.38290       .     S
C34   C42    1.48802       .     S
C42   C34    1.48802       .     S
C35   H36    0.92982       .     S
H36   C35    0.92982       .     S
C35   C39    1.38554       .     S
C39   C35    1.38554       .     S
C37   H38    0.92994       .     S
H38   C37    0.92994       .     S
C37   C41    1.38340       .     S
C41   C37    1.38340       .     S
C39   H40    0.92981       .     S
H40   C39    0.92981       .     S
C41   C43    1.48882       .     S
C43   C41    1.48882       .     S
H1    O0     0.81996       .     S
O0    H1     0.81996       .     S
C22   O0     1.27363       .     S
O0    C22    1.27363       .     S
C22   O2     1.24631       .     S
O2    C22    1.24631       .     S
C23   O3     1.24448       .     S
O3    C23    1.24448       .     S
H5    O4     0.81987       .     S
O4    H5     0.81987       .     S
C23   O4     1.27238       .     S
O4    C23    1.27238       .     S
C12   C6     1.48458       .     S
C6    C12    1.48458       .     S
C13   C6     1.38630       .     S
C6    C13    1.38630       .     S
C35   C6     1.38630       .     S
C6    C35    1.38630       .     S
C8    C7     1.48538       .     S
C7    C8     1.48538       .     S
C17   C7     1.38618       .     S
C7    C17    1.38618       .     S
C39   C7     1.38618       .     S
C7    C39    1.38618       .     S
C15   C8     1.39205       .     S
C8    C15    1.39205       .     S
C37   C8     1.39205       .     S
C8    C37    1.39205       .     S
H10   C9     0.93008       .     S
C9    H10    0.93008       .     S
C11   C9     1.38290       .     S
C9    C11    1.38290       .     S
C12   C9     1.39414       .     S
C9    C12    1.39414       .     S
C20   C11    1.38969       .     S
C11   C20    1.38969       .     S
C22   C11    1.48802       .     S
C11   C22    1.48802       .     S
C32   C12    1.39414       .     S
C12   C32    1.39414       .     S
H14   C13    0.92994       .     S
C13   H14    0.92994       .     S
C17   C13    1.38554       .     S
C13   C17    1.38554       .     S
H16   C15    0.93006       .     S
C15   H16    0.93006       .     S
C19   C15    1.38340       .     S
C15   C19    1.38340       .     S
H18   C17    0.92981       .     S
C17   H18    0.92981       .     S
C23   C19    1.48882       .     S
C19   C23    1.48882       .     S
C24   C19    1.38959       .     S
C19   C24    1.38959       .     S
H21   C20    0.93005       .     S
C20   H21    0.93005       .     S
C34   C20    1.38969       .     S
C20   C34    1.38969       .     S
H25   C24    0.93005       .     S
C24   H25    0.93005       .     S
C41   C24    1.38959       .     S
C24   C41    1.38959       .     S
H27   O26    0.81996       .     S
O26   H27    0.81996       .     S
C42   O26    1.27363       .     S
O26   C42    1.27363       .     S
C42   O28    1.24632       .     S
O28   C42    1.24632       .     S
C43   O29    1.24448       .     S
O29   C43    1.24448       .     S
H31   O30    0.81990       .     S
O30   H31    0.81990       .     S
C43   O30    1.27238       .     S
O30   C43    1.27238       .     S
H33   C32    0.93008       .     S
C32   H33    0.93008       .     S
C34   C32    1.38290       .     S
C32   C34    1.38290       .     S
C42   C34    1.48802       .     S
C34   C42    1.48802       .     S
H36   C35    0.92982       .     S
C35   H36    0.92982       .     S
C39   C35    1.38554       .     S
C35   C39    1.38554       .     S
H38   C37    0.92994       .     S
C37   H38    0.92994       .     S
C41   C37    1.38340       .     S
C37   C41    1.38340       .     S
H40   C39    0.92981       .     S
C39   H40    0.92981       .     S
C43   C41    1.48882       .     S
C41   C43    1.48882       .     S
