data_I
_chemical_name_common  '/data/user2/wty/HOF/MOFDiff/mofdiff/data/test/263-bptca-2_hklf5'
_cell_length_a 10.82660
_cell_length_b 31.55660
_cell_length_c 18.55030
_cell_angle_alpha 90.00000
_cell_angle_beta  105.14300
_cell_angle_gamma 90.00000
_space_group_name_H-M_alt      'P 1'


loop_
_space_group_symop_operation_xyz
  'x, y, z' 

loop_
_atom_site_label
_atom_site_fract_x
_atom_site_fract_y
_atom_site_fract_z
_atom_site_type_symbol
O0      0.6506  0.69843  0.51417     O
H1     0.59288  0.71537  0.49724     H
O2      0.6607  0.73114  0.62199     O
O3      0.7789  0.54946  0.51557     O
H4     0.80242  0.52808  0.49781     H
O5     0.88099   0.5187  0.62253     O
O6      0.8219   0.5206  0.94986     O
O7      0.9217  0.55196   0.0564     O
H8     0.90017  0.53029  0.07429     H
O9      0.0553  0.70011  0.05397     O
H10    0.08729  0.72281  0.07066     H
O11     0.0449  0.73229  0.94574     O
C12     0.7392  0.66111  0.62608     C
C13     0.7511  0.62442  0.58681     C
H14    0.72396  0.62392  0.53493     H
C15     0.8043  0.58851  0.62643     C
C16     0.8417  0.58902  0.70391     C
H17    0.87485  0.56453  0.72969     H
C18     0.8304  0.62579  0.74389     C
C19      0.779  0.66172  0.70332     C
H20    0.77129   0.6866  0.72865     H
C21      0.873  0.62622  0.82631     C
C22     0.8582  0.59028  0.86765     C
H23    0.82109  0.56601  0.84272     H
C24     0.8977  0.59024   0.9447     C
C25     0.9522  0.62625  0.98332     C
H26     0.9782  0.62627  0.03523     H
C27     0.9674  0.66222  0.94326     C
C28     0.9278  0.66219  0.86568     C
H29    0.93799  0.68654  0.83958     H
C30     0.6799  0.69977  0.58533     C
C31     0.8237  0.54916   0.5865     C
C32     0.0261   0.7012  0.98275     C
C33     0.8784  0.55113  0.98566     C
O34      0.692  0.73179   0.9114     O
O35     0.7034  0.69934  0.01924     O
H36    0.75969  0.71685  0.03562     H
O37     0.5735  0.55072  0.02084     O
H38    0.54699  0.53009  0.03914     H
O39     0.4674  0.51992  0.91423     O
C40     0.6136  0.66172  0.90845     C
C41     0.6002  0.62532  0.94832     C
H42    0.62678  0.62512  0.00021     H
C43     0.5465  0.58923   0.9092     C
C44     0.5069  0.58933  0.83151     C
C45    0.52031   0.6259  0.79148     C
C46     0.5742  0.66202  0.83124     C
H47     0.5836  0.68656  0.80542     H
C48      0.673  0.70038  0.94865     C
C49     0.5271  0.55034  0.94963     C
O50      0.308  0.73179   0.5886     O
O51     0.2966  0.69934  0.48076     O
H52    0.24032  0.71685  0.46438     H
O53     0.4265  0.55072  0.47916     O
H54    0.45301  0.53009  0.46086     H
O55     0.5326  0.51992  0.58577     O
C56     0.3864  0.66172  0.59155     C
C57     0.3998  0.62532  0.55168     C
H58    0.37322  0.62512  0.49979     H
C59     0.4535  0.58923   0.5908     C
C60     0.4931  0.58933  0.66849     C
C61    0.47969   0.6259  0.70852     C
C62     0.4258  0.66202  0.66876     C
H63     0.4164  0.68656  0.69458     H
C64      0.327  0.70038  0.55135     C
C65     0.4729  0.55034  0.55037     C
loop_
_geom_bond_atom_site_label_1
_geom_bond_atom_site_label_2
_geom_bond_distance
_geom_bond_site_symmetry_2
_ccdc_geom_bond_type
O0    H1     0.81998       .     S
H1    O0     0.81998       .     S
O0    C30    1.27520       .     S
C30   O0     1.27520       .     S
O2    C30    1.24880       .     S
C30   O2     1.24880       .     S
O3    H4     0.82000       .     S
H4    O3     0.82000       .     S
O3    C31    1.27796       .     S
C31   O3     1.27796       .     S
O5    C31    1.24047       .     S
C31   O5     1.24047       .     S
O6    C33    1.23740       .     S
C33   O6     1.23740       .     S
O7    H8     0.82007       .     S
H8    O7     0.82007       .     S
O7    C33    1.27320   1_554     S
C33   O7     1.27320   1_556     S
O9    H10    0.82032       .     S
H10   O9     0.82032       .     S
O9    C32    1.27607   1_554     S
C32   O9     1.27607   1_556     S
O11   C32    1.24432       .     S
C32   O11    1.24432       .     S
C12   C13    1.39170       .     S
C13   C12    1.39170       .     S
C12   C19    1.38437       .     S
C19   C12    1.38437       .     S
C12   C30    1.48943       .     S
C30   C12    1.48943       .     S
C13   H14    0.93007       .     S
H14   C13    0.93007       .     S
C13   C15    1.39100       .     S
C15   C13    1.39100       .     S
C15   C16    1.38778       .     S
C16   C15    1.38778       .     S
C15   C31    1.48862       .     S
C31   C15    1.48862       .     S
C16   H17    0.93010       .     S
H17   C16    0.93010       .     S
C16   C18    1.39956       .     S
C18   C16    1.39956       .     S
C18   C19    1.39385       .     S
C19   C18    1.39385       .     S
C18   C21    1.47718       .     S
C21   C18    1.47718       .     S
C19   H20    0.92988       .     S
H20   C19    0.92988       .     S
C21   C22    1.40152       .     S
C22   C21    1.40152       .     S
C21   C28    1.39550       .     S
C28   C21    1.39550       .     S
C22   H23    0.92994       .     S
H23   C22    0.92994       .     S
C22   C24    1.38074       .     S
C24   C22    1.38074       .     S
C24   C25    1.38991       .     S
C25   C24    1.38991       .     S
C24   C33    1.49236       .     S
C33   C24    1.49236       .     S
C25   H26    0.92999   1_556     S
H26   C25    0.92999   1_554     S
C25   C27    1.38983       .     S
C27   C25    1.38983       .     S
C27   C28    1.39017       .     S
C28   C27    1.39017       .     S
C27   C32    1.48673   1_655     S
C32   C27    1.48673   1_455     S
C28   H29    0.93002       .     S
H29   C28    0.93002       .     S
O34   C48    1.25560       .     S
C48   O34    1.25560       .     S
O35   H36    0.81994       .     S
H36   O35    0.81994       .     S
O35   C48    1.26449   1_554     S
C48   O35    1.26449   1_556     S
O37   H38    0.81996       .     S
H38   O37    0.81996       .     S
O37   C49    1.28482   1_554     S
C49   O37    1.28482   1_556     S
O39   C49    1.24449       .     S
C49   O39    1.24449       .     S
C40   C41    1.39411       .     S
C41   C40    1.39411       .     S
C40   C46    1.38356       .     S
C46   C40    1.38356       .     S
C40   C48    1.48576       .     S
C48   C40    1.48576       .     S
C41   H42    0.92988   1_556     S
H42   C41    0.92988   1_554     S
C41   C43    1.39329       .     S
C43   C41    1.39329       .     S
C43   C44    1.39212       .     S
C44   C43    1.39212       .     S
C43   C49    1.48156       .     S
C49   C43    1.48156       .     S
C44   C45    1.40021       .     S
C45   C44    1.40021       .     S
C45   C46    1.39956       .     S
C46   C45    1.39956       .     S
C45   C61    1.48598       .     S
C61   C45    1.48598       .     S
C46   H47    0.93001       .     S
H47   C46    0.93001       .     S
O50   C64    1.25560       .     S
C64   O50    1.25560       .     S
O51   H52    0.81987       .     S
H52   O51    0.81987       .     S
O51   C64    1.26449       .     S
C64   O51    1.26449       .     S
O53   H54    0.81996       .     S
H54   O53    0.81996       .     S
O53   C65    1.28482       .     S
C65   O53    1.28482       .     S
O55   C65    1.24449       .     S
C65   O55    1.24449       .     S
C56   C57    1.39411       .     S
C57   C56    1.39411       .     S
C56   C62    1.38356       .     S
C62   C56    1.38356       .     S
C56   C64    1.48576       .     S
C64   C56    1.48576       .     S
C57   H58    0.92988       .     S
H58   C57    0.92988       .     S
C57   C59    1.39329       .     S
C59   C57    1.39329       .     S
C59   C60    1.39212       .     S
C60   C59    1.39212       .     S
C59   C65    1.48156       .     S
C65   C59    1.48156       .     S
C60   C61    1.40021       .     S
C61   C60    1.40021       .     S
C61   C62    1.39956       .     S
C62   C61    1.39956       .     S
C62   H63    0.93001       .     S
H63   C62    0.93001       .     S
H1    O0     0.81998       .     S
O0    H1     0.81998       .     S
C30   O0     1.27520       .     S
O0    C30    1.27520       .     S
C30   O2     1.24880       .     S
O2    C30    1.24880       .     S
H4    O3     0.82000       .     S
O3    H4     0.82000       .     S
C31   O3     1.27796       .     S
O3    C31    1.27796       .     S
C31   O5     1.24047       .     S
O5    C31    1.24047       .     S
C33   O6     1.23740       .     S
O6    C33    1.23740       .     S
H8    O7     0.82007       .     S
O7    H8     0.82007       .     S
C33   O7     1.27320   1_556     S
O7    C33    1.27320   1_554     S
H10   O9     0.82032       .     S
O9    H10    0.82032       .     S
C32   O9     1.27607   1_556     S
O9    C32    1.27607   1_554     S
C32   O11    1.24432       .     S
O11   C32    1.24432       .     S
C13   C12    1.39170       .     S
C12   C13    1.39170       .     S
C19   C12    1.38437       .     S
C12   C19    1.38437       .     S
C30   C12    1.48943       .     S
C12   C30    1.48943       .     S
H14   C13    0.93007       .     S
C13   H14    0.93007       .     S
C15   C13    1.39100       .     S
C13   C15    1.39100       .     S
C16   C15    1.38778       .     S
C15   C16    1.38778       .     S
C31   C15    1.48862       .     S
C15   C31    1.48862       .     S
H17   C16    0.93010       .     S
C16   H17    0.93010       .     S
C18   C16    1.39956       .     S
C16   C18    1.39956       .     S
C19   C18    1.39385       .     S
C18   C19    1.39385       .     S
C21   C18    1.47718       .     S
C18   C21    1.47718       .     S
H20   C19    0.92988       .     S
C19   H20    0.92988       .     S
C22   C21    1.40152       .     S
C21   C22    1.40152       .     S
C28   C21    1.39550       .     S
C21   C28    1.39550       .     S
H23   C22    0.92994       .     S
C22   H23    0.92994       .     S
C24   C22    1.38074       .     S
C22   C24    1.38074       .     S
C25   C24    1.38991       .     S
C24   C25    1.38991       .     S
C33   C24    1.49236       .     S
C24   C33    1.49236       .     S
H26   C25    0.92999   1_554     S
C25   H26    0.92999   1_556     S
C27   C25    1.38983       .     S
C25   C27    1.38983       .     S
C28   C27    1.39017       .     S
C27   C28    1.39017       .     S
C32   C27    1.48673   1_455     S
C27   C32    1.48673   1_655     S
H29   C28    0.93002       .     S
C28   H29    0.93002       .     S
C48   O34    1.25560       .     S
O34   C48    1.25560       .     S
H36   O35    0.81994       .     S
O35   H36    0.81994       .     S
C48   O35    1.26449   1_556     S
O35   C48    1.26449   1_554     S
H38   O37    0.81996       .     S
O37   H38    0.81996       .     S
C49   O37    1.28482   1_556     S
O37   C49    1.28482   1_554     S
C49   O39    1.24449       .     S
O39   C49    1.24449       .     S
C41   C40    1.39411       .     S
C40   C41    1.39411       .     S
C46   C40    1.38356       .     S
C40   C46    1.38356       .     S
C48   C40    1.48576       .     S
C40   C48    1.48576       .     S
H42   C41    0.92988   1_554     S
C41   H42    0.92988   1_556     S
C43   C41    1.39329       .     S
C41   C43    1.39329       .     S
C44   C43    1.39212       .     S
C43   C44    1.39212       .     S
C49   C43    1.48156       .     S
C43   C49    1.48156       .     S
C45   C44    1.40021       .     S
C44   C45    1.40021       .     S
C46   C45    1.39956       .     S
C45   C46    1.39956       .     S
C61   C45    1.48598       .     S
C45   C61    1.48598       .     S
H47   C46    0.93001       .     S
C46   H47    0.93001       .     S
C64   O50    1.25560       .     S
O50   C64    1.25560       .     S
H52   O51    0.81987       .     S
O51   H52    0.81987       .     S
C64   O51    1.26449       .     S
O51   C64    1.26449       .     S
H54   O53    0.81996       .     S
O53   H54    0.81996       .     S
C65   O53    1.28482       .     S
O53   C65    1.28482       .     S
C65   O55    1.24449       .     S
O55   C65    1.24449       .     S
C57   C56    1.39411       .     S
C56   C57    1.39411       .     S
C62   C56    1.38356       .     S
C56   C62    1.38356       .     S
C64   C56    1.48576       .     S
C56   C64    1.48576       .     S
H58   C57    0.92988       .     S
C57   H58    0.92988       .     S
C59   C57    1.39329       .     S
C57   C59    1.39329       .     S
C60   C59    1.39212       .     S
C59   C60    1.39212       .     S
C65   C59    1.48156       .     S
C59   C65    1.48156       .     S
C61   C60    1.40021       .     S
C60   C61    1.40021       .     S
C62   C61    1.39956       .     S
C61   C62    1.39956       .     S
H63   C62    0.93001       .     S
C62   H63    0.93001       .     S
