data_I
_chemical_name_common  '/data/user2/wty/HOF/MOFDiff/mofdiff/data/test/263-bptca-2'
_cell_length_a 15.22430
_cell_length_b  7.16370
_cell_length_c 17.59620
_cell_angle_alpha 90.00000
_cell_angle_beta  90.00000
_cell_angle_gamma 90.00000
_space_group_name_H-M_alt      'P 1'


loop_
_space_group_symop_operation_xyz
  'x, y, z' 

loop_
_atom_site_label
_atom_site_fract_x
_atom_site_fract_y
_atom_site_fract_z
_atom_site_type_symbol
O0      0.5379   0.7119  0.43604     O
O1     0.53508   0.3017  0.10466     O
O2     0.60097   0.3761   0.9948     O
H3     0.55972  0.31354  0.97596     H
O4     0.60575   0.6437   0.5462     O
H5     0.56212  0.69815  0.56525     H
C6        0.75      0.5   0.3119     C
C7        0.75      0.5   0.2267     C
C8     0.59694   0.3674  0.06908     C
C9        0.75      0.5   0.0682     C
C10       0.75      0.5   0.4721     C
H11       0.75      0.5  0.52607     H
C12    0.59987   0.6479  0.47177     C
C13    0.67654   0.4406  0.10839     C
C14    0.67585   0.4452  0.18776     C
H15    0.62438  0.41048  0.21482     H
C16    0.67774   0.5663  0.43192     C
C17    0.67709   0.5632  0.35267     C
H18     0.6264  0.60454  0.32607     H
H19       0.75      0.5    0.023     H
O20     0.9621   0.2881  0.43604     O
O21    0.96492   0.6983  0.10466     O
O22    0.89903   0.6239   0.9948     O
H23    0.94028  0.68646  0.97596     H
O24    0.89425   0.3563   0.5462     O
H25    0.93788  0.30185  0.56525     H
C26    0.90306   0.6326  0.06908     C
C27    0.90013   0.3521  0.47177     C
C28    0.82346   0.5594  0.10839     C
C29    0.82415   0.5548  0.18776     C
H30    0.87562  0.58952  0.21482     H
C31    0.82226   0.4337  0.43192     C
C32    0.82291   0.4368  0.35267     C
H33     0.8736  0.39547  0.32607     H
loop_
_geom_bond_atom_site_label_1
_geom_bond_atom_site_label_2
_geom_bond_distance
_geom_bond_site_symmetry_2
_ccdc_geom_bond_type
O0    C12    1.22294       .     S
C12   O0     1.22294       .     S
O1    C8     1.22492       .     S
C8    O1     1.22492       .     S
O2    H3     0.83972       .     S
H3    O2     0.83972       .     S
O2    C8     1.30997   1_556     S
C8    O2     1.30997   1_554     S
O4    H5     0.84007       .     S
H5    O4     0.84007       .     S
O4    C12    1.31309       .     S
C12   O4     1.31309       .     S
C6    C7     1.49920       .     S
C7    C6     1.49920       .     S
C6    C17    1.39705       .     S
C17   C6     1.39705       .     S
C6    C32    1.39705       .     S
C32   C6     1.39705       .     S
C7    C14    1.37767       .     S
C14   C7     1.37767       .     S
C7    C29    1.37767       .     S
C29   C7     1.37767       .     S
C8    C13    1.49065       .     S
C13   C8     1.49065       .     S
C9    C13    1.38995       .     S
C13   C9     1.38995       .     S
C9    H19    0.79535       .     S
H19   C9     0.79535       .     S
C9    C28    1.38995       .     S
C28   C9     1.38995       .     S
C10   H11    0.94967       .     S
H11   C10    0.94967       .     S
C10   C16    1.39129       .     S
C16   C10    1.39129       .     S
C10   C31    1.39129       .     S
C31   C10    1.39129       .     S
C12   C16    1.49628       .     S
C16   C12    1.49628       .     S
C13   C14    1.39704       .     S
C14   C13    1.39704       .     S
C14   H15    0.95006       .     S
H15   C14    0.95006       .     S
C16   C17    1.39471       .     S
C17   C16    1.39471       .     S
C17   H18    0.94991       .     S
H18   C17    0.94991       .     S
O20   C27    1.22294       .     S
C27   O20    1.22294       .     S
O21   C26    1.22492       .     S
C26   O21    1.22492       .     S
O22   H23    0.83972       .     S
H23   O22    0.83972       .     S
O22   C26    1.30997   1_556     S
C26   O22    1.30997   1_554     S
O24   H25    0.84007       .     S
H25   O24    0.84007       .     S
O24   C27    1.31309       .     S
C27   O24    1.31309       .     S
C26   C28    1.49065       .     S
C28   C26    1.49065       .     S
C27   C31    1.49628       .     S
C31   C27    1.49628       .     S
C28   C29    1.39704       .     S
C29   C28    1.39704       .     S
C29   H30    0.95006       .     S
H30   C29    0.95006       .     S
C31   C32    1.39471       .     S
C32   C31    1.39471       .     S
C32   H33    0.94989       .     S
H33   C32    0.94989       .     S
C12   O0     1.22294       .     S
O0    C12    1.22294       .     S
C8    O1     1.22492       .     S
O1    C8     1.22492       .     S
H3    O2     0.83972       .     S
O2    H3     0.83972       .     S
C8    O2     1.30997   1_554     S
O2    C8     1.30997   1_556     S
H5    O4     0.84007       .     S
O4    H5     0.84007       .     S
C12   O4     1.31309       .     S
O4    C12    1.31309       .     S
C7    C6     1.49920       .     S
C6    C7     1.49920       .     S
C17   C6     1.39705       .     S
C6    C17    1.39705       .     S
C32   C6     1.39705       .     S
C6    C32    1.39705       .     S
C14   C7     1.37767       .     S
C7    C14    1.37767       .     S
C29   C7     1.37767       .     S
C7    C29    1.37767       .     S
C13   C8     1.49065       .     S
C8    C13    1.49065       .     S
C13   C9     1.38995       .     S
C9    C13    1.38995       .     S
H19   C9     0.79535       .     S
C9    H19    0.79535       .     S
C28   C9     1.38995       .     S
C9    C28    1.38995       .     S
H11   C10    0.94967       .     S
C10   H11    0.94967       .     S
C16   C10    1.39129       .     S
C10   C16    1.39129       .     S
C31   C10    1.39129       .     S
C10   C31    1.39129       .     S
C16   C12    1.49628       .     S
C12   C16    1.49628       .     S
C14   C13    1.39704       .     S
C13   C14    1.39704       .     S
H15   C14    0.95006       .     S
C14   H15    0.95006       .     S
C17   C16    1.39471       .     S
C16   C17    1.39471       .     S
H18   C17    0.94991       .     S
C17   H18    0.94991       .     S
C27   O20    1.22294       .     S
O20   C27    1.22294       .     S
C26   O21    1.22492       .     S
O21   C26    1.22492       .     S
H23   O22    0.83972       .     S
O22   H23    0.83972       .     S
C26   O22    1.30997   1_554     S
O22   C26    1.30997   1_556     S
H25   O24    0.84007       .     S
O24   H25    0.84007       .     S
C27   O24    1.31309       .     S
O24   C27    1.31309       .     S
C28   C26    1.49065       .     S
C26   C28    1.49065       .     S
C31   C27    1.49628       .     S
C27   C31    1.49628       .     S
C29   C28    1.39704       .     S
C28   C29    1.39704       .     S
H30   C29    0.95006       .     S
C29   H30    0.95006       .     S
C32   C31    1.39471       .     S
C31   C32    1.39471       .     S
H33   C32    0.94989       .     S
C32   H33    0.94989       .     S
