data_I
_chemical_name_common  '/data/user2/wty/HOF/MOFDiff/mofdiff/data/test/263-tptca-1'
_cell_length_a 16.42010
_cell_length_b 26.50630
_cell_length_c  7.19160
_cell_angle_alpha 90.00000
_cell_angle_beta  114.82400
_cell_angle_gamma 90.00000
_space_group_name_H-M_alt      'P 1'


loop_
_space_group_symop_operation_xyz
  'x, y, z' 

loop_
_atom_site_label
_atom_site_fract_x
_atom_site_fract_y
_atom_site_fract_z
_atom_site_type_symbol
O0      0.3499   0.2543    0.475     O
H1     0.30305  0.24206  0.38339     H
O2     0.28018  0.32705  0.34242     O
H3       0.302   0.7941    0.348     H
O4     0.28435   0.7115  0.32769     O
O5     0.35872  0.78365  0.44744     O
C6         0.5  0.30346     0.75     C
H7         0.5  0.26762  0.75001     H
C8     0.42506  0.33008   0.6178     C
C9     0.34507  0.30343   0.4674     C
C10    0.42486  0.38272   0.6199     C
H11    0.37265  0.40038  0.53103     H
C12        0.5  0.40987     0.75     C
C13        0.5  0.46582     0.75     C
C14     0.4209  0.49302   0.7066     C
H15    0.36662  0.47532  0.67788     H
C16    0.42049  0.54517    0.705     C
H17     0.3659  0.56281  0.67317     H
C18        0.5  0.57231     0.75     C
C19        0.5  0.62834     0.75     C
C20    0.42679  0.65514    0.611     C
H21    0.37601  0.63742  0.51643     H
C22    0.42733  0.70816   0.6093     C
C23        0.5  0.73469     0.75     C
H24        0.5  0.77053     0.75     H
C25    0.35053  0.73508   0.4498     C
O26     0.6501   0.2543    0.025     O
H27    0.69695  0.24206  0.11661     H
O28    0.71982  0.32705  0.15758     O
H29      0.698   0.7941    0.152     H
O30    0.71565   0.7115  0.17231     O
O31    0.64128  0.78365  0.05256     O
C32    0.57494  0.33008   0.8822     C
C33    0.65493  0.30343   0.0326     C
C34    0.57514  0.38272   0.8801     C
H35    0.62735  0.40038  0.96897     H
C36     0.5791  0.49302   0.7934     C
H37    0.63338  0.47532  0.82212     H
C38    0.57951  0.54517    0.795     C
H39     0.6341  0.56281  0.82683     H
C40    0.57321  0.65514    0.889     C
H41    0.62399  0.63742  0.98357     H
C42    0.57267  0.70816   0.8907     C
C43    0.64947  0.73508   0.0502     C
loop_
_geom_bond_atom_site_label_1
_geom_bond_atom_site_label_2
_geom_bond_distance
_geom_bond_site_symmetry_2
_ccdc_geom_bond_type
O0    H1     0.83997       .     S
H1    O0     0.83997       .     S
O0    C9     1.30442       .     S
C9    O0     1.30442       .     S
O2    C9     1.23733       .     S
C9    O2     1.23733       .     S
H3    O5     0.94673       .     S
O5    H3     0.94673       .     S
O4    C25    1.24154       .     S
C25   O4     1.24154       .     S
O5    C25    1.29527       .     S
C25   O5     1.29527       .     S
C6    H7     0.94999       .     S
H7    C6     0.94999       .     S
C6    C8     1.39055       .     S
C8    C6     1.39055       .     S
C6    C32    1.39055       .     S
C32   C6     1.39055       .     S
C8    C9     1.48363       .     S
C9    C8     1.48363       .     S
C8    C10    1.39539       .     S
C10   C8     1.39539       .     S
C10   H11    0.94999       .     S
H11   C10    0.94999       .     S
C10   C12    1.39509       .     S
C12   C10    1.39509       .     S
C12   C13    1.48303       .     S
C13   C12    1.48303       .     S
C12   C34    1.39509       .     S
C34   C12    1.39509       .     S
C13   C14    1.40135       .     S
C14   C13    1.40135       .     S
C13   C36    1.40135       .     S
C36   C13    1.40135       .     S
C14   H15    0.95004       .     S
H15   C14    0.95004       .     S
C14   C16    1.38234       .     S
C16   C14    1.38234       .     S
C16   H17    0.94985       .     S
H17   C16    0.94985       .     S
C16   C18    1.40427       .     S
C18   C16    1.40427       .     S
C18   C19    1.48515       .     S
C19   C18    1.48515       .     S
C18   C38    1.40427       .     S
C38   C18    1.40427       .     S
C19   C20    1.39283       .     S
C20   C19    1.39283       .     S
C19   C40    1.39283       .     S
C40   C19    1.39283       .     S
C20   H21    0.94987       .     S
H21   C20    0.94987       .     S
C20   C22    1.40548       .     S
C22   C20    1.40548       .     S
C22   C23    1.38867       .     S
C23   C22    1.38867       .     S
C22   C25    1.48344       .     S
C25   C22    1.48344       .     S
C23   H24    0.94999       .     S
H24   C23    0.94999       .     S
C23   C42    1.38867       .     S
C42   C23    1.38867       .     S
O26   H27    0.83997       .     S
H27   O26    0.83997       .     S
O26   C33    1.30442       .     S
C33   O26    1.30442       .     S
O28   C33    1.23733       .     S
C33   O28    1.23733       .     S
H29   O31    0.94673       .     S
O31   H29    0.94673       .     S
O30   C43    1.24154       .     S
C43   O30    1.24154       .     S
O31   C43    1.29527       .     S
C43   O31    1.29527       .     S
C32   C33    1.48363   1_556     S
C33   C32    1.48363   1_554     S
C32   C34    1.39539       .     S
C34   C32    1.39539       .     S
C34   H35    0.94999       .     S
H35   C34    0.94999       .     S
C36   H37    0.95005       .     S
H37   C36    0.95005       .     S
C36   C38    1.38234       .     S
C38   C36    1.38234       .     S
C38   H39    0.94985       .     S
H39   C38    0.94985       .     S
C40   H41    0.94986       .     S
H41   C40    0.94986       .     S
C40   C42    1.40548       .     S
C42   C40    1.40548       .     S
C42   C43    1.48344   1_556     S
C43   C42    1.48344   1_554     S
H1    O0     0.83997       .     S
O0    H1     0.83997       .     S
C9    O0     1.30442       .     S
O0    C9     1.30442       .     S
C9    O2     1.23733       .     S
O2    C9     1.23733       .     S
O5    H3     0.94673       .     S
H3    O5     0.94673       .     S
C25   O4     1.24154       .     S
O4    C25    1.24154       .     S
C25   O5     1.29527       .     S
O5    C25    1.29527       .     S
H7    C6     0.94999       .     S
C6    H7     0.94999       .     S
C8    C6     1.39055       .     S
C6    C8     1.39055       .     S
C32   C6     1.39055       .     S
C6    C32    1.39055       .     S
C9    C8     1.48363       .     S
C8    C9     1.48363       .     S
C10   C8     1.39539       .     S
C8    C10    1.39539       .     S
H11   C10    0.94999       .     S
C10   H11    0.94999       .     S
C12   C10    1.39509       .     S
C10   C12    1.39509       .     S
C13   C12    1.48303       .     S
C12   C13    1.48303       .     S
C34   C12    1.39509       .     S
C12   C34    1.39509       .     S
C14   C13    1.40135       .     S
C13   C14    1.40135       .     S
C36   C13    1.40135       .     S
C13   C36    1.40135       .     S
H15   C14    0.95004       .     S
C14   H15    0.95004       .     S
C16   C14    1.38234       .     S
C14   C16    1.38234       .     S
H17   C16    0.94985       .     S
C16   H17    0.94985       .     S
C18   C16    1.40427       .     S
C16   C18    1.40427       .     S
C19   C18    1.48515       .     S
C18   C19    1.48515       .     S
C38   C18    1.40427       .     S
C18   C38    1.40427       .     S
C20   C19    1.39283       .     S
C19   C20    1.39283       .     S
C40   C19    1.39283       .     S
C19   C40    1.39283       .     S
H21   C20    0.94987       .     S
C20   H21    0.94987       .     S
C22   C20    1.40548       .     S
C20   C22    1.40548       .     S
C23   C22    1.38867       .     S
C22   C23    1.38867       .     S
C25   C22    1.48344       .     S
C22   C25    1.48344       .     S
H24   C23    0.94999       .     S
C23   H24    0.94999       .     S
C42   C23    1.38867       .     S
C23   C42    1.38867       .     S
H27   O26    0.83997       .     S
O26   H27    0.83997       .     S
C33   O26    1.30442       .     S
O26   C33    1.30442       .     S
C33   O28    1.23733       .     S
O28   C33    1.23733       .     S
O31   H29    0.94673       .     S
H29   O31    0.94673       .     S
C43   O30    1.24154       .     S
O30   C43    1.24154       .     S
C43   O31    1.29527       .     S
O31   C43    1.29527       .     S
C33   C32    1.48363   1_554     S
C32   C33    1.48363   1_556     S
C34   C32    1.39539       .     S
C32   C34    1.39539       .     S
H35   C34    0.94999       .     S
C34   H35    0.94999       .     S
H37   C36    0.95005       .     S
C36   H37    0.95005       .     S
C38   C36    1.38234       .     S
C36   C38    1.38234       .     S
H39   C38    0.94985       .     S
C38   H39    0.94985       .     S
H41   C40    0.94986       .     S
C40   H41    0.94986       .     S
C42   C40    1.40548       .     S
C40   C42    1.40548       .     S
C43   C42    1.48344   1_554     S
C42   C43    1.48344   1_556     S
