data_I
_chemical_name_common  '/data/user2/wty/HOF/MOFDiff/mofdiff/data/test/264-cp-py-3'
_cell_length_a  7.58640
_cell_length_b  9.40400
_cell_length_c 13.01600
_cell_angle_alpha 78.06000
_cell_angle_beta  86.45300
_cell_angle_gamma 67.84000
_space_group_name_H-M_alt      'P 1'


loop_
_space_group_symop_operation_xyz
  'x, y, z' 

loop_
_atom_site_label
_atom_site_fract_x
_atom_site_fract_y
_atom_site_fract_z
_atom_site_type_symbol
O0      0.8721    0.858   0.8135     O
H1     0.79786  0.85337  0.86357     H
O2      0.0562   0.8678   0.9366     O
O3      0.1878   0.1397   0.8982     O
H4     0.09642  0.16223  0.93959     H
O5      0.3613   0.1499   0.0283     O
C6      0.2055   0.3333   0.4588     C
C7      0.7743   0.4092   0.6271     C
C8      0.9412   0.3267    0.575     C
C9      0.0338   0.4192    0.508     C
C10     0.0386   0.8394   0.8504     C
C11     0.3478   0.6515   0.6417     C
H12    0.33638  0.60632  0.58474     H
C13     0.2718   0.1751   0.4744     C
H14    0.38538  0.12136  0.44107     H
C15     0.6748   0.3231   0.7024     C
C16     0.3324   0.1628   0.9341     C
C17     0.4548   0.2131   0.8515     C
C18     0.3738   0.7899   0.8039     C
H19     0.3843  0.83458   0.8613     H
C20      0.199   0.7879   0.7818     C
C21     0.0142   0.1689   0.5887     C
H22    0.95285   0.1096  0.63417     H
C23     0.7058     0.31   0.8087     C
H24    0.80008  0.34221  0.82985     H
C25     0.1797   0.0912   0.5366     C
H26    0.22703  0.98038  0.54493     H
C27     0.4317    0.211   0.7465     C
H28    0.34734  0.16853  0.72555     H
C29     0.6016   0.2509   0.8839     C
H30    0.62892  0.23597  0.95646     H
C31     0.5337   0.7297   0.7462     C
H32    0.64958  0.73902  0.76069     H
C33     0.5227   0.6538   0.6649     C
C34     0.7002    0.569   0.6122     C
C35     0.5386   0.2742   0.6738     C
H36    0.51652  0.28397  0.60118     H
C37     0.1926   0.7132   0.6996     C
H38    0.07602  0.70568  0.68421     H
O39     0.1279    0.142   0.1865     O
H40    0.20214  0.14663  0.13643     H
O41     0.9438   0.1322   0.0634     O
O42     0.8122   0.8603   0.1018     O
H43    0.90358  0.83777  0.06041     H
O44     0.6387   0.8501   0.9717     O
C45     0.7945   0.6667   0.5412     C
C46     0.2257   0.5908   0.3729     C
C47     0.0588   0.6733    0.425     C
C48     0.9662   0.5808    0.492     C
C49     0.9614   0.1606   0.1496     C
C50     0.6522   0.3485   0.3583     C
H51    0.66361  0.39368  0.41526     H
C52     0.7282   0.8249   0.5256     C
H53    0.61462  0.87864  0.55893     H
C54     0.3252   0.6769   0.2976     C
C55     0.6676   0.8372   0.0659     C
C56     0.5452   0.7869   0.1485     C
C57     0.6262   0.2101   0.1961     C
H58     0.6157  0.16542   0.1387     H
C59      0.801   0.2121   0.2182     C
C60     0.9858   0.8311   0.4113     C
H61    0.04715   0.8904  0.36583     H
C62     0.2942     0.69   0.1913     C
H63    0.19992  0.65779  0.17015     H
C64     0.8203   0.9088   0.4634     C
H65    0.77297  0.01962  0.45506     H
C66     0.5683    0.789   0.2535     C
H67    0.65266  0.83147  0.27445     H
C68     0.3984   0.7491   0.1161     C
H69    0.37108  0.76403  0.04354     H
C70     0.4663   0.2703   0.2538     C
H71    0.35042  0.26098  0.23931     H
C72     0.4773   0.3462   0.3351     C
C73     0.2998    0.431   0.3878     C
C74     0.4614   0.7258   0.3262     C
H75    0.48348  0.71603  0.39882     H
C76     0.8074   0.2868   0.3004     C
H77    0.92397  0.29432  0.31579     H
loop_
_geom_bond_atom_site_label_1
_geom_bond_atom_site_label_2
_geom_bond_distance
_geom_bond_site_symmetry_2
_ccdc_geom_bond_type
H1    O44    1.79987       .     S
O44   H1     1.79987       .     S
H4    O41    1.96081   1_456     S
O41   H4     1.96081   1_654     S
H40   O5     1.79987       .     S
O5    H40    1.79987       .     S
H43   O2     1.96081   1_654     S
O2    H43    1.96081   1_456     S
O0    H1     0.83975       .     S
H1    O0     0.83975       .     S
O0    C10    1.31545   1_655     S
C10   O0     1.31545   1_455     S
O2    C10    1.23184       .     S
C10   O2     1.23184       .     S
O3    H4     0.84019       .     S
H4    O3     0.84019       .     S
O3    C16    1.32444       .     S
C16   O3     1.32444       .     S
O5    C16    1.23198   1_554     S
C16   O5     1.23198   1_556     S
C6    C9     1.44098       .     S
C9    C6     1.44098       .     S
C6    C13    1.35302       .     S
C13   C6     1.35302       .     S
C6    C73    1.50754       .     S
C73   C6     1.50754       .     S
C7    C8     1.42666       .     S
C8    C7     1.42666       .     S
C7    C15    1.49237       .     S
C15   C7     1.49237       .     S
C7    C34    1.36657       .     S
C34   C7     1.36657       .     S
C8    C9     1.44291   1_655     S
C9    C8     1.44291   1_455     S
C8    C21    1.35032   1_655     S
C21   C8     1.35032   1_455     S
C9    C48    1.38208   1_455     S
C48   C9     1.38208   1_655     S
C10   C20    1.45343       .     S
C20   C10    1.45343       .     S
C11   H12    0.95065       .     S
H12   C11    0.95065       .     S
C11   C33    1.38786       .     S
C33   C11    1.38786       .     S
C11   C37    1.35892       .     S
C37   C11    1.35892       .     S
C13   H14    0.94975       .     S
H14   C13    0.94975       .     S
C13   C25    1.35931       .     S
C25   C13    1.35931       .     S
C15   C23    1.39022       .     S
C23   C15    1.39022       .     S
C15   C35    1.37643       .     S
C35   C15    1.37643       .     S
C16   C17    1.49643       .     S
C17   C16    1.49643       .     S
C17   C27    1.39367       .     S
C27   C17    1.39367       .     S
C17   C29    1.40117       .     S
C29   C17    1.40117       .     S
C18   H19    0.95057       .     S
H19   C18    0.95057       .     S
C18   C20    1.38199       .     S
C20   C18    1.38199       .     S
C18   C31    1.37883       .     S
C31   C18    1.37883       .     S
C20   C37    1.40844       .     S
C37   C20    1.40844       .     S
C21   H22    0.95028   1_455     S
H22   C21    0.95028   1_655     S
C21   C25    1.40633       .     S
C25   C21    1.40633       .     S
C23   H24    0.94943       .     S
H24   C23    0.94943       .     S
C23   C29    1.37929       .     S
C29   C23    1.37929       .     S
C25   H26    0.95002   1_545     S
H26   C25    0.95002   1_565     S
C27   H28    0.95023       .     S
H28   C27    0.95023       .     S
C27   C35    1.39366       .     S
C35   C27    1.39366       .     S
C29   H30    0.94976       .     S
H30   C29    0.94976       .     S
C31   H32    0.94951       .     S
H32   C31    0.94951       .     S
C31   C33    1.41584       .     S
C33   C31    1.41584       .     S
C33   C34    1.49054       .     S
C34   C33    1.49054       .     S
C34   C45    1.50754       .     S
C45   C34    1.50754       .     S
C35   H36    0.94973       .     S
H36   C35    0.94973       .     S
C37   H38    0.94989       .     S
H38   C37    0.94989       .     S
O39   H40    0.83975       .     S
H40   O39    0.83975       .     S
O39   C49    1.31545   1_455     S
C49   O39    1.31545   1_655     S
O41   C49    1.23184       .     S
C49   O41    1.23184       .     S
O42   H43    0.84019       .     S
H43   O42    0.84019       .     S
O42   C55    1.32444       .     S
C55   O42    1.32444       .     S
O44   C55    1.23198   1_556     S
C55   O44    1.23198   1_554     S
C45   C48    1.44098       .     S
C48   C45    1.44098       .     S
C45   C52    1.35301       .     S
C52   C45    1.35301       .     S
C46   C47    1.42666       .     S
C47   C46    1.42666       .     S
C46   C54    1.49237       .     S
C54   C46    1.49237       .     S
C46   C73    1.36657       .     S
C73   C46    1.36657       .     S
C47   C48    1.44291   1_455     S
C48   C47    1.44291   1_655     S
C47   C60    1.35032   1_455     S
C60   C47    1.35032   1_655     S
C49   C59    1.45343       .     S
C59   C49    1.45343       .     S
C50   H51    0.95063       .     S
H51   C50    0.95063       .     S
C50   C72    1.38786       .     S
C72   C50    1.38786       .     S
C50   C76    1.35893       .     S
C76   C50    1.35893       .     S
C52   H53    0.94975       .     S
H53   C52    0.94975       .     S
C52   C64    1.35931       .     S
C64   C52    1.35931       .     S
C54   C62    1.39022       .     S
C62   C54    1.39022       .     S
C54   C74    1.37643       .     S
C74   C54    1.37643       .     S
C55   C56    1.49642       .     S
C56   C55    1.49642       .     S
C56   C66    1.39367       .     S
C66   C56    1.39367       .     S
C56   C68    1.40117       .     S
C68   C56    1.40117       .     S
C57   H58    0.95057       .     S
H58   C57    0.95057       .     S
C57   C59    1.38199       .     S
C59   C57    1.38199       .     S
C57   C70    1.37883       .     S
C70   C57    1.37883       .     S
C59   C76    1.40844       .     S
C76   C59    1.40844       .     S
C60   H61    0.95028   1_655     S
H61   C60    0.95028   1_455     S
C60   C64    1.40633       .     S
C64   C60    1.40633       .     S
C62   H63    0.94943       .     S
H63   C62    0.94943       .     S
C62   C68    1.37929       .     S
C68   C62    1.37929       .     S
C64   H65    0.95001   1_565     S
H65   C64    0.95001   1_545     S
C66   H67    0.95023       .     S
H67   C66    0.95023       .     S
C66   C74    1.39366       .     S
C74   C66    1.39366       .     S
C68   H69    0.94976       .     S
H69   C68    0.94976       .     S
C70   H71    0.94951       .     S
H71   C70    0.94951       .     S
C70   C72    1.41584       .     S
C72   C70    1.41584       .     S
C72   C73    1.49054       .     S
C73   C72    1.49054       .     S
C74   H75    0.94973       .     S
H75   C74    0.94973       .     S
C76   H77    0.94982       .     S
H77   C76    0.94982       .     S
O44   H1     1.79987       .     S
H1    O44    1.79987       .     S
O41   H4     1.96081   1_654     S
H4    O41    1.96081   1_456     S
O5    H40    1.79987       .     S
H40   O5     1.79987       .     S
O2    H43    1.96081   1_456     S
H43   O2     1.96081   1_654     S
H1    O0     0.83975       .     S
O0    H1     0.83975       .     S
C10   O0     1.31545   1_455     S
O0    C10    1.31545   1_655     S
C10   O2     1.23184       .     S
O2    C10    1.23184       .     S
H4    O3     0.84019       .     S
O3    H4     0.84019       .     S
C16   O3     1.32444       .     S
O3    C16    1.32444       .     S
C16   O5     1.23198   1_556     S
O5    C16    1.23198   1_554     S
C9    C6     1.44098       .     S
C6    C9     1.44098       .     S
C13   C6     1.35302       .     S
C6    C13    1.35302       .     S
C73   C6     1.50754       .     S
C6    C73    1.50754       .     S
C8    C7     1.42666       .     S
C7    C8     1.42666       .     S
C15   C7     1.49237       .     S
C7    C15    1.49237       .     S
C34   C7     1.36657       .     S
C7    C34    1.36657       .     S
C9    C8     1.44291   1_455     S
C8    C9     1.44291   1_655     S
C21   C8     1.35032   1_455     S
C8    C21    1.35032   1_655     S
C48   C9     1.38208   1_655     S
C9    C48    1.38208   1_455     S
C20   C10    1.45343       .     S
C10   C20    1.45343       .     S
H12   C11    0.95065       .     S
C11   H12    0.95065       .     S
C33   C11    1.38786       .     S
C11   C33    1.38786       .     S
C37   C11    1.35892       .     S
C11   C37    1.35892       .     S
H14   C13    0.94975       .     S
C13   H14    0.94975       .     S
C25   C13    1.35931       .     S
C13   C25    1.35931       .     S
C23   C15    1.39022       .     S
C15   C23    1.39022       .     S
C35   C15    1.37643       .     S
C15   C35    1.37643       .     S
C17   C16    1.49643       .     S
C16   C17    1.49643       .     S
C27   C17    1.39367       .     S
C17   C27    1.39367       .     S
C29   C17    1.40117       .     S
C17   C29    1.40117       .     S
H19   C18    0.95057       .     S
C18   H19    0.95057       .     S
C20   C18    1.38199       .     S
C18   C20    1.38199       .     S
C31   C18    1.37883       .     S
C18   C31    1.37883       .     S
C37   C20    1.40844       .     S
C20   C37    1.40844       .     S
H22   C21    0.95028   1_655     S
C21   H22    0.95028   1_455     S
C25   C21    1.40633       .     S
C21   C25    1.40633       .     S
H24   C23    0.94943       .     S
C23   H24    0.94943       .     S
C29   C23    1.37929       .     S
C23   C29    1.37929       .     S
H26   C25    0.95002   1_565     S
C25   H26    0.95002   1_545     S
H28   C27    0.95023       .     S
C27   H28    0.95023       .     S
C35   C27    1.39366       .     S
C27   C35    1.39366       .     S
H30   C29    0.94976       .     S
C29   H30    0.94976       .     S
H32   C31    0.94951       .     S
C31   H32    0.94951       .     S
C33   C31    1.41584       .     S
C31   C33    1.41584       .     S
C34   C33    1.49054       .     S
C33   C34    1.49054       .     S
C45   C34    1.50754       .     S
C34   C45    1.50754       .     S
H36   C35    0.94973       .     S
C35   H36    0.94973       .     S
H38   C37    0.94989       .     S
C37   H38    0.94989       .     S
H40   O39    0.83975       .     S
O39   H40    0.83975       .     S
C49   O39    1.31545   1_655     S
O39   C49    1.31545   1_455     S
C49   O41    1.23184       .     S
O41   C49    1.23184       .     S
H43   O42    0.84019       .     S
O42   H43    0.84019       .     S
C55   O42    1.32444       .     S
O42   C55    1.32444       .     S
C55   O44    1.23198   1_554     S
O44   C55    1.23198   1_556     S
C48   C45    1.44098       .     S
C45   C48    1.44098       .     S
C52   C45    1.35301       .     S
C45   C52    1.35301       .     S
C47   C46    1.42666       .     S
C46   C47    1.42666       .     S
C54   C46    1.49237       .     S
C46   C54    1.49237       .     S
C73   C46    1.36657       .     S
C46   C73    1.36657       .     S
C48   C47    1.44291   1_655     S
C47   C48    1.44291   1_455     S
C60   C47    1.35032   1_655     S
C47   C60    1.35032   1_455     S
C59   C49    1.45343       .     S
C49   C59    1.45343       .     S
H51   C50    0.95063       .     S
C50   H51    0.95063       .     S
C72   C50    1.38786       .     S
C50   C72    1.38786       .     S
C76   C50    1.35893       .     S
C50   C76    1.35893       .     S
H53   C52    0.94975       .     S
C52   H53    0.94975       .     S
C64   C52    1.35931       .     S
C52   C64    1.35931       .     S
C62   C54    1.39022       .     S
C54   C62    1.39022       .     S
C74   C54    1.37643       .     S
C54   C74    1.37643       .     S
C56   C55    1.49642       .     S
C55   C56    1.49642       .     S
C66   C56    1.39367       .     S
C56   C66    1.39367       .     S
C68   C56    1.40117       .     S
C56   C68    1.40117       .     S
H58   C57    0.95057       .     S
C57   H58    0.95057       .     S
C59   C57    1.38199       .     S
C57   C59    1.38199       .     S
C70   C57    1.37883       .     S
C57   C70    1.37883       .     S
C76   C59    1.40844       .     S
C59   C76    1.40844       .     S
H61   C60    0.95028   1_455     S
C60   H61    0.95028   1_655     S
C64   C60    1.40633       .     S
C60   C64    1.40633       .     S
H63   C62    0.94943       .     S
C62   H63    0.94943       .     S
C68   C62    1.37929       .     S
C62   C68    1.37929       .     S
H65   C64    0.95001   1_545     S
C64   H65    0.95001   1_565     S
H67   C66    0.95023       .     S
C66   H67    0.95023       .     S
C74   C66    1.39366       .     S
C66   C74    1.39366       .     S
H69   C68    0.94976       .     S
C68   H69    0.94976       .     S
H71   C70    0.94951       .     S
C70   H71    0.94951       .     S
C72   C70    1.41584       .     S
C70   C72    1.41584       .     S
C73   C72    1.49054       .     S
C72   C73    1.49054       .     S
H75   C74    0.94973       .     S
C74   H75    0.94973       .     S
H77   C76    0.94982       .     S
C76   H77    0.94982       .     S
