data_I
_chemical_name_common  '/data/user2/wty/HOF/MOFDiff/mofdiff/data/test/264-cp-py-2-dman'
_cell_length_a  7.46930
_cell_length_b 14.23300
_cell_length_c 24.17200
_cell_angle_alpha 90.00000
_cell_angle_beta  94.08000
_cell_angle_gamma 90.00000
_space_group_name_H-M_alt      'P 1'


loop_
_space_group_symop_operation_xyz
  'x, y, z' 

loop_
_atom_site_label
_atom_site_fract_x
_atom_site_fract_y
_atom_site_fract_z
_atom_site_type_symbol
O0      0.1905   0.3565  0.23022     O
O1      0.0002   0.3807  0.29257     O
H2      0.9274  0.36508  0.26608     H
C3      0.9912    0.452  0.49454     C
O4      0.0602   0.8006  0.34193     O
H5     0.98868  0.82637  0.31821     H
C6      0.7233   0.4868  0.43354     C
C7       0.741   0.5789  0.44482     C
C8      0.8472   0.4203  0.45831     C
O9      0.2496   0.8337  0.28047     O
C10     0.1145   0.3878   0.5188     C
C11      0.833   0.3258  0.44747     C
H12    0.73775   0.3034  0.42282     H
C13     0.5761    0.455  0.39467     C
C14     0.0937   0.2937  0.50642     C
H15    0.17769  0.24952  0.52231     H
C16      0.613    0.646  0.41773     C
C17     0.3026   0.4016  0.31896     C
C18     0.9543   0.2634  0.47172     C
H19    0.94081  0.19816   0.4642     H
C20     0.6062   0.4335  0.34113     C
H21    0.72523  0.43572  0.32971     H
C22     0.1562   0.3765  0.27751     C
C23     0.4033   0.4476  0.40944     C
H24    0.37862  0.45997  0.44676     H
C25     0.6469   0.6854  0.36825     C
H26    0.76052  0.67656  0.35369     H
C27       0.47   0.4091  0.30385     C
H28    0.49425  0.39718  0.26645     H
C29     0.3558   0.7498  0.35828     C
C30      0.215   0.8008    0.325     C
C31     0.4539   0.6663  0.43821     C
H32    0.43093   0.6435  0.47395     H
C33     0.3257   0.7181  0.40971     C
H34    0.21599  0.73197   0.4256     H
C35     0.2677   0.4234  0.37289     C
H36    0.14827  0.42123  0.38399     H
C37     0.5175   0.7379   0.3393     C
H38    0.54369  0.76616  0.30519     H
O39     0.8095   0.6435  0.76978     O
O40     0.9998   0.6193  0.70743     O
H41     0.0726  0.63492  0.73392     H
C42     0.0088    0.548  0.50546     C
O43     0.9398   0.1994  0.65807     O
H44    0.01132  0.17363  0.68179     H
C45     0.2767   0.5132  0.56646     C
C46      0.259   0.4211  0.55518     C
C47     0.1528   0.5797  0.54169     C
O48     0.7504   0.1663  0.71953     O
C49     0.8855   0.6122   0.4812     C
C50      0.167   0.6742  0.55253     C
H51    0.26225   0.6966  0.57718     H
C52     0.4239    0.545  0.60533     C
C53     0.9063   0.7063  0.49358     C
H54    0.82231  0.75048  0.47769     H
C55      0.387    0.354  0.58227     C
C56     0.6974   0.5984  0.68104     C
C57     0.0457   0.7366  0.52828     C
H58    0.05919  0.80184  0.53579     H
C59     0.3938   0.5665  0.65887     C
H60    0.27477  0.56427  0.67029     H
C61     0.8438   0.6235  0.72249     C
C62     0.5967   0.5524  0.59056     C
H63    0.62139  0.54003  0.55324     H
C64     0.3531   0.3146  0.63175     C
H65    0.23948  0.32344  0.64631     H
C66       0.53   0.5909  0.69615     C
H67    0.50575  0.60282  0.73355     H
C68     0.6442   0.2502  0.64172     C
C69      0.785   0.1992    0.675     C
C70     0.5461   0.3337  0.56179     C
H71    0.56907   0.3565  0.52605     H
C72     0.6743   0.2819  0.59029     C
H73    0.78402  0.26803   0.5744     H
C74     0.7323   0.5766  0.62711     C
H75    0.85173  0.57877  0.61601     H
C76     0.4825   0.2621   0.6607     C
H77    0.45631  0.23384  0.69481     H
N78      0.414   0.1159   0.3483     N
C79     0.2158   0.0846   0.2676     C
H80    0.31333  0.05682  0.25042     H
C81      0.046   0.0855   0.2403     C
H82    0.02691  0.05832  0.20441     H
C83     0.9029   0.1261   0.2654     C
H84    0.78659  0.12671   0.2467     H
C85     0.9302   0.1658   0.3178     C
H86    0.83268  0.19359    0.335     H
C87     0.1004   0.1649   0.3452     C
H88     0.1191  0.19209  0.38101     H
C89     0.2431   0.1243     0.32     C
C90      0.427   0.1655   0.3991     C
H91    0.54801  0.15746  0.41714     H
H92    0.40456   0.2324  0.39205     H
H93    0.33844  0.14106  0.42339     H
C94      0.512    0.039   0.3291     C
H95    0.62957  0.03584  0.34986     H
H96    0.44608  0.98063  0.33454     H
H97    0.52894  0.04726  0.28954     H
H98    0.87531  0.93722  0.37415     H
C99      0.871    0.951   0.4125     C
C100     0.825    0.928   0.4251     C
H101    0.9059   0.9511  0.39801     H
H102   0.86618   0.8656  0.43836     H
C103     0.028    0.973   0.4443     C
H104   0.13952  0.97343  0.42776     H
C105     0.022    0.993   0.5004     C
N106     0.175    0.012   0.5313     N
C107     0.322    0.954   0.5151     C
H108   0.43113  0.96993  0.53833     H
H109   0.29313   0.8879  0.51976     H
H110    0.3426   0.9666  0.47609     H
H111   0.29677  0.07768  0.59252     H
C112     0.292     0.05   0.5633     C
H113   0.39957  0.06472  0.58507     H
C114     0.299     0.03   0.5072     C
H115   0.41024  0.03045  0.49069     H
C116     0.142    0.008   0.4754     C
H117   0.14603  0.99424  0.43707     H
C118     0.708     0.95   0.4367     C
H119   0.60043  0.93528  0.41493     H
C120     0.701     0.97   0.4928     C
H121   0.58977  0.96955  0.50931     H
C122     0.858    0.992   0.5246     C
H123   0.85397  0.00576  0.56293     H
C124     0.972    0.027   0.5557     C
H125   0.86048  0.02657  0.57224     H
C126     0.978    0.007   0.4996     C
N127     0.825    0.988   0.4687     N
C128     0.678    0.046   0.4849     C
H129   0.56888  0.03007  0.46167     H
H130   0.70687   0.1121  0.48023     H
H131    0.6574   0.0334  0.52391     H
H132   0.70323  0.92232  0.40748     H
C133     0.175    0.072   0.5749     C
H134    0.0941   0.0489  0.60199     H
C135     0.129    0.049   0.5875     C
H136   0.13382   0.1344  0.56164     H
H137   0.12469  0.06278  0.62585     H
loop_
_geom_bond_atom_site_label_1
_geom_bond_atom_site_label_2
_geom_bond_distance
_geom_bond_site_symmetry_2
_ccdc_geom_bond_type
O0    C22    1.22270       .     S
C22   O0     1.22270       .     S
O1    H2     0.83998   1_455     S
H2    O1     0.83998   1_655     S
O1    C22    1.24666       .     S
C22   O1     1.24666       .     S
C3    C8     1.41186       .     S
C8    C3     1.41186       .     S
C3    C10    1.39648   1_655     S
C10   C3     1.39648   1_455     S
C3    C42    1.39606   1_655     S
C42   C3     1.39606   1_455     S
O4    H5     0.83968   1_455     S
H5    O4     0.83968   1_655     S
O4    C30    1.25368       .     S
C30   O4     1.25368       .     S
C6    C7     1.34352       .     S
C7    C6     1.34352       .     S
C6    C8     1.42546       .     S
C8    C6     1.42546       .     S
C6    C13    1.46612       .     S
C13   C6     1.46612       .     S
C7    C16    1.47169       .     S
C16   C7     1.47169       .     S
C7    C49    1.42401       .     S
C49   C7     1.42401       .     S
C8    C11    1.37296       .     S
C11   C8     1.37296       .     S
O9    C30    1.21829       .     S
C30   O9     1.21829       .     S
C10   C14    1.37872       .     S
C14   C10    1.37872       .     S
C10   C46    1.42401       .     S
C46   C10    1.42401       .     S
C11   H12    0.95001       .     S
H12   C11    0.95001       .     S
C11   C18    1.37029       .     S
C18   C11    1.37029       .     S
C13   C20    1.36399       .     S
C20   C13    1.36399       .     S
C13   C23    1.36749       .     S
C23   C13    1.36749       .     S
C14   H15    0.94985       .     S
H15   C14    0.94985       .     S
C14   C18    1.35992   1_455     S
C18   C14    1.35992   1_655     S
C16   C25    1.36095       .     S
C25   C16    1.36095       .     S
C16   C31    1.35073       .     S
C31   C16    1.35073       .     S
C17   C22    1.47355       .     S
C22   C17    1.47355       .     S
C17   C27    1.33161       .     S
C27   C17    1.33161       .     S
C17   C35    1.38273       .     S
C35   C17    1.38273       .     S
C18   H19    0.95016       .     S
H19   C18    0.95016       .     S
C20   H21    0.95004       .     S
H21   C20    0.95004       .     S
C20   C27    1.35541       .     S
C27   C20    1.35541       .     S
C23   H24    0.94996       .     S
H24   C23    0.94996       .     S
C23   C35    1.34078       .     S
C35   C23    1.34078       .     S
C25   H26    0.94996       .     S
H26   C25    0.94996       .     S
C25   C37    1.37331       .     S
C37   C25    1.37331       .     S
C27   H28    0.94983       .     S
H28   C27    0.94983       .     S
C29   C30    1.46958       .     S
C30   C29    1.46958       .     S
C29   C33    1.35623       .     S
C33   C29    1.35623       .     S
C29   C37    1.33295       .     S
C37   C29    1.33295       .     S
C31   H32    0.94983       .     S
H32   C31    0.94983       .     S
C31   C33    1.35691       .     S
C33   C31    1.35691       .     S
C33   H34    0.95016       .     S
H34   C33    0.95016       .     S
C35   H36    0.95014       .     S
H36   C35    0.95014       .     S
C37   H38    0.95017       .     S
H38   C37    0.95017       .     S
O39   C61    1.22270       .     S
C61   O39    1.22270       .     S
O40   H41    0.83998   1_655     S
H41   O40    0.83998   1_455     S
O40   C61    1.24666       .     S
C61   O40    1.24666       .     S
C42   C47    1.41186       .     S
C47   C42    1.41186       .     S
C42   C49    1.39648   1_455     S
C49   C42    1.39648   1_655     S
O43   H44    0.83968   1_655     S
H44   O43    0.83968   1_455     S
O43   C69    1.25368       .     S
C69   O43    1.25368       .     S
C45   C46    1.34352       .     S
C46   C45    1.34352       .     S
C45   C47    1.42546       .     S
C47   C45    1.42546       .     S
C45   C52    1.46612       .     S
C52   C45    1.46612       .     S
C46   C55    1.47169       .     S
C55   C46    1.47169       .     S
C47   C50    1.37296       .     S
C50   C47    1.37296       .     S
O48   C69    1.21829       .     S
C69   O48    1.21829       .     S
C49   C53    1.37872       .     S
C53   C49    1.37872       .     S
C50   H51    0.95001       .     S
H51   C50    0.95001       .     S
C50   C57    1.37029       .     S
C57   C50    1.37029       .     S
C52   C59    1.36399       .     S
C59   C52    1.36399       .     S
C52   C62    1.36749       .     S
C62   C52    1.36749       .     S
C53   H54    0.94985       .     S
H54   C53    0.94985       .     S
C53   C57    1.35992   1_655     S
C57   C53    1.35992   1_455     S
C55   C64    1.36095       .     S
C64   C55    1.36095       .     S
C55   C70    1.35073       .     S
C70   C55    1.35073       .     S
C56   C61    1.47355       .     S
C61   C56    1.47355       .     S
C56   C66    1.33161       .     S
C66   C56    1.33161       .     S
C56   C74    1.38273       .     S
C74   C56    1.38273       .     S
C57   H58    0.95012       .     S
H58   C57    0.95012       .     S
C59   H60    0.95004       .     S
H60   C59    0.95004       .     S
C59   C66    1.35541       .     S
C66   C59    1.35541       .     S
C62   H63    0.94998       .     S
H63   C62    0.94998       .     S
C62   C74    1.34078       .     S
C74   C62    1.34078       .     S
C64   H65    0.94996       .     S
H65   C64    0.94996       .     S
C64   C76    1.37331       .     S
C76   C64    1.37331       .     S
C66   H67    0.94983       .     S
H67   C66    0.94983       .     S
C68   C69    1.46958       .     S
C69   C68    1.46958       .     S
C68   C72    1.35623       .     S
C72   C68    1.35623       .     S
C68   C76    1.33295       .     S
C76   C68    1.33295       .     S
C70   H71    0.94983       .     S
H71   C70    0.94983       .     S
C70   C72    1.35691       .     S
C72   C70    1.35691       .     S
C72   H73    0.95022       .     S
H73   C72    0.95022       .     S
C74   H75    0.95014       .     S
H75   C74    0.95014       .     S
C76   H77    0.95017       .     S
H77   C76    0.95017       .     S
N78   C89    1.40977       .     S
C89   N78    1.40977       .     S
N78   C90    1.41374       .     S
C90   N78    1.41374       .     S
N78   C94    1.41333       .     S
C94   N78    1.41333       .     S
C79   H80    0.95001       .     S
H80   C79    0.95001       .     S
C79   C81    1.38747       .     S
C81   C79    1.38747       .     S
C79   C89    1.38867       .     S
C89   C79    1.38867       .     S
C81   H82    0.95131       .     S
H82   C81    0.95131       .     S
C81   C83    1.39168   1_455     S
C83   C81    1.39168   1_655     S
C83   H84    0.95039       .     S
H84   C83    0.95039       .     S
C83   C85    1.38867       .     S
C85   C83    1.38867       .     S
C85   H86    0.95025       .     S
H86   C85    0.95025       .     S
C85   C87    1.39110   1_655     S
C87   C85    1.39110   1_455     S
C87   H88    0.94939       .     S
H88   C87    0.94939       .     S
C87   C89    1.39048       .     S
C89   C87    1.39048       .     S
C90   H91    0.98190       .     S
H91   C90    0.98190       .     S
C90   H92    0.97966       .     S
H92   C90    0.97966       .     S
C90   H93    0.97906       .     S
H93   C90    0.97906       .     S
C94   H95    0.98097       .     S
H95   C94    0.98097       .     S
C94   H96    0.97935   1_545     S
H96   C94    0.97935   1_565     S
C94   H97    0.98054       .     S
H97   C94    0.98054       .     S
H98   C99    0.95030       .     S
C99   H98    0.95030       .     S
H98   C100   1.31948       .     S
C100  H98    1.31948       .     S
H98   H101   0.63649       .     S
H101  H98    0.63649       .     S
C99   C100   0.57695       .     S
C100  C99    0.57695       .     S
C99   H101   0.45125       .     S
H101  C99    0.45125       .     S
C99   C103   1.39133   1_655     S
C103  C99    1.39133   1_455     S
C99   C118   1.38781       .     S
C118  C99    1.38781       .     S
C99   N127   1.51896       .     S
N127  C99    1.51896       .     S
C99   H132   1.31531       .     S
H132  C99    1.31531       .     S
C100  H101   0.97894       .     S
H101  C100   0.97894       .     S
C100  H102   0.98595       .     S
H102  C100   0.98595       .     S
C100  C103   1.68064   1_655     S
C103  C100   1.68064   1_455     S
C100  C118   0.98755       .     S
C118  C100   0.98755       .     S
C100  N127   1.35646       .     S
N127  C100   1.35646       .     S
C100  H132   0.97983       .     S
H132  C100   0.97983       .     S
C103  H104   0.94927       .     S
H104  C103   0.94927       .     S
C103  C105   1.38944       .     S
C105  C103   1.38944       .     S
C103  C116   1.20302   1_565     S
C116  C103   1.20302   1_545     S
C103  H117   0.95973       .     S
H117  C103   0.95973       .     S
C103  C126   1.49382   1_465     S
C126  C103   1.49382   1_645     S
H104  C116   1.25119   1_565     S
C116  H104   1.25119   1_545     S
H104  H117   0.37307       .     S
H117  H104   0.37307       .     S
C105  N106   1.34742   1_565     S
N106  C105   1.34742   1_545     S
C105  C116   1.13632   1_565     S
C116  C105   1.13632   1_545     S
C105  C122   1.39459   1_455     S
C122  C105   1.39459   1_655     S
C105  C124   1.49382   1_465     S
C124  C105   1.49382   1_645     S
C105  C126   0.38365   1_465     S
C126  C105   0.38365   1_645     S
C105  N127   1.61150   1_455     S
N127  C105   1.61150   1_655     S
N106  C107   1.44968   1_545     S
C107  N106   1.44968   1_565     S
N106  C112   1.24834       .     S
C112  N106   1.24834       .     S
N106  C114   1.15741       .     S
C114  N106   1.15741       .     S
N106  C116   1.35735       .     S
C116  N106   1.35735       .     S
N106  C126   1.61150   1_455     S
C126  N106   1.61150   1_655     S
N106  C133   1.35646       .     S
C133  N106   1.35646       .     S
N106  C135   1.51896       .     S
C135  N106   1.51896       .     S
C107  H108   0.98286       .     S
H108  C107   0.98286       .     S
C107  H109   0.97352       .     S
H109  C107   0.97352       .     S
C107  H110   0.98267       .     S
H110  C107   0.98267       .     S
C107  C114   1.10969   1_565     S
C114  C107   1.10969   1_545     S
C107  C116   1.77077   1_565     S
C116  C107   1.77077   1_545     S
H110  C114   1.23315   1_565     S
C114  H110   1.23315   1_545     S
H111  C112   0.80732       .     S
C112  H111   0.80732       .     S
H111  C133   0.97983       .     S
C133  H111   0.97983       .     S
H111  C135   1.31531       .     S
C135  H111   1.31531       .     S
C112  H113   0.95195       .     S
H113  C112   0.95195       .     S
C112  C114   1.39022       .     S
C114  C112   1.39022       .     S
C112  C133   0.98755       .     S
C133  C112   0.98755       .     S
C112  C135   1.38781       .     S
C135  C112   1.38781       .     S
C114  H115   0.94703       .     S
H115  C114   0.94703       .     S
C114  C116   1.39133       .     S
C116  C114   1.39133       .     S
C116  H117   0.94956   1_545     S
H117  C116   0.94956   1_565     S
C116  C126   1.39459   1_455     S
C126  C116   1.39459   1_655     S
C118  H119   0.95195       .     S
H119  C118   0.95195       .     S
C118  C120   1.39022       .     S
C120  C118   1.39022       .     S
C118  N127   1.24834       .     S
N127  C118   1.24834       .     S
C118  H132   0.80732       .     S
H132  C118   0.80732       .     S
C120  H121   0.94696       .     S
H121  C120   0.94696       .     S
C120  C122   1.39133       .     S
C122  C120   1.39133       .     S
C120  N127   1.15741       .     S
N127  C120   1.15741       .     S
C120  C128   1.10969   1_565     S
C128  C120   1.10969   1_545     S
C120  H131   1.23315   1_565     S
H131  C120   1.23315   1_545     S
C122  H123   0.94956   1_565     S
H123  C122   0.94956   1_545     S
C122  C124   1.20302   1_565     S
C124  C122   1.20302   1_545     S
C122  H125   1.25119   1_565     S
H125  C122   1.25119   1_545     S
C122  C126   1.13632   1_565     S
C126  C122   1.13632   1_545     S
C122  N127   1.35735       .     S
N127  C122   1.35735       .     S
C122  C128   1.77077   1_565     S
C128  C122   1.77077   1_545     S
H123  C124   0.95973       .     S
C124  H123   0.95973       .     S
H123  H125   0.37307       .     S
H125  H123   0.37307       .     S
C124  H125   0.94927       .     S
H125  C124   0.94927       .     S
C124  C126   1.38945       .     S
C126  C124   1.38945       .     S
C124  C133   1.68064   1_655     S
C133  C124   1.68064   1_455     S
C124  C135   1.39133   1_655     S
C135  C124   1.39133   1_455     S
C126  N127   1.34742   1_545     S
N127  C126   1.34742   1_565     S
N127  C128   1.44968   1_565     S
C128  N127   1.44968   1_545     S
C128  H129   0.98280       .     S
H129  C128   0.98280       .     S
C128  H130   0.97356       .     S
H130  C128   0.97356       .     S
C128  H131   0.98267       .     S
H131  C128   0.98267       .     S
C133  H134   0.97894       .     S
H134  C133   0.97894       .     S
C133  C135   0.57695       .     S
C135  C133   0.57695       .     S
C133  H136   0.98595       .     S
H136  C133   0.98595       .     S
C133  H137   1.31948       .     S
H137  C133   1.31948       .     S
H134  C135   0.45125       .     S
C135  H134   0.45125       .     S
H134  H137   0.63649       .     S
H137  H134   0.63649       .     S
C135  H137   0.95030       .     S
H137  C135   0.95030       .     S
C22   O0     1.22270       .     S
O0    C22    1.22270       .     S
H2    O1     0.83998   1_655     S
O1    H2     0.83998   1_455     S
C22   O1     1.24666       .     S
O1    C22    1.24666       .     S
C8    C3     1.41186       .     S
C3    C8     1.41186       .     S
C10   C3     1.39648   1_455     S
C3    C10    1.39648   1_655     S
C42   C3     1.39606   1_455     S
C3    C42    1.39606   1_655     S
H5    O4     0.83968   1_655     S
O4    H5     0.83968   1_455     S
C30   O4     1.25368       .     S
O4    C30    1.25368       .     S
C7    C6     1.34352       .     S
C6    C7     1.34352       .     S
C8    C6     1.42546       .     S
C6    C8     1.42546       .     S
C13   C6     1.46612       .     S
C6    C13    1.46612       .     S
C16   C7     1.47169       .     S
C7    C16    1.47169       .     S
C49   C7     1.42401       .     S
C7    C49    1.42401       .     S
C11   C8     1.37296       .     S
C8    C11    1.37296       .     S
C30   O9     1.21829       .     S
O9    C30    1.21829       .     S
C14   C10    1.37872       .     S
C10   C14    1.37872       .     S
C46   C10    1.42401       .     S
C10   C46    1.42401       .     S
H12   C11    0.95001       .     S
C11   H12    0.95001       .     S
C18   C11    1.37029       .     S
C11   C18    1.37029       .     S
C20   C13    1.36399       .     S
C13   C20    1.36399       .     S
C23   C13    1.36749       .     S
C13   C23    1.36749       .     S
H15   C14    0.94985       .     S
C14   H15    0.94985       .     S
C18   C14    1.35992   1_655     S
C14   C18    1.35992   1_455     S
C25   C16    1.36095       .     S
C16   C25    1.36095       .     S
C31   C16    1.35073       .     S
C16   C31    1.35073       .     S
C22   C17    1.47355       .     S
C17   C22    1.47355       .     S
C27   C17    1.33161       .     S
C17   C27    1.33161       .     S
C35   C17    1.38273       .     S
C17   C35    1.38273       .     S
H19   C18    0.95016       .     S
C18   H19    0.95016       .     S
H21   C20    0.95004       .     S
C20   H21    0.95004       .     S
C27   C20    1.35541       .     S
C20   C27    1.35541       .     S
H24   C23    0.94996       .     S
C23   H24    0.94996       .     S
C35   C23    1.34078       .     S
C23   C35    1.34078       .     S
H26   C25    0.94996       .     S
C25   H26    0.94996       .     S
C37   C25    1.37331       .     S
C25   C37    1.37331       .     S
H28   C27    0.94983       .     S
C27   H28    0.94983       .     S
C30   C29    1.46958       .     S
C29   C30    1.46958       .     S
C33   C29    1.35623       .     S
C29   C33    1.35623       .     S
C37   C29    1.33295       .     S
C29   C37    1.33295       .     S
H32   C31    0.94983       .     S
C31   H32    0.94983       .     S
C33   C31    1.35691       .     S
C31   C33    1.35691       .     S
H34   C33    0.95016       .     S
C33   H34    0.95016       .     S
H36   C35    0.95014       .     S
C35   H36    0.95014       .     S
H38   C37    0.95017       .     S
C37   H38    0.95017       .     S
C61   O39    1.22270       .     S
O39   C61    1.22270       .     S
H41   O40    0.83998   1_455     S
O40   H41    0.83998   1_655     S
C61   O40    1.24666       .     S
O40   C61    1.24666       .     S
C47   C42    1.41186       .     S
C42   C47    1.41186       .     S
C49   C42    1.39648   1_655     S
C42   C49    1.39648   1_455     S
H44   O43    0.83968   1_455     S
O43   H44    0.83968   1_655     S
C69   O43    1.25368       .     S
O43   C69    1.25368       .     S
C46   C45    1.34352       .     S
C45   C46    1.34352       .     S
C47   C45    1.42546       .     S
C45   C47    1.42546       .     S
C52   C45    1.46612       .     S
C45   C52    1.46612       .     S
C55   C46    1.47169       .     S
C46   C55    1.47169       .     S
C50   C47    1.37296       .     S
C47   C50    1.37296       .     S
C69   O48    1.21829       .     S
O48   C69    1.21829       .     S
C53   C49    1.37872       .     S
C49   C53    1.37872       .     S
H51   C50    0.95001       .     S
C50   H51    0.95001       .     S
C57   C50    1.37029       .     S
C50   C57    1.37029       .     S
C59   C52    1.36399       .     S
C52   C59    1.36399       .     S
C62   C52    1.36749       .     S
C52   C62    1.36749       .     S
H54   C53    0.94985       .     S
C53   H54    0.94985       .     S
C57   C53    1.35992   1_455     S
C53   C57    1.35992   1_655     S
C64   C55    1.36095       .     S
C55   C64    1.36095       .     S
C70   C55    1.35073       .     S
C55   C70    1.35073       .     S
C61   C56    1.47355       .     S
C56   C61    1.47355       .     S
C66   C56    1.33161       .     S
C56   C66    1.33161       .     S
C74   C56    1.38273       .     S
C56   C74    1.38273       .     S
H58   C57    0.95012       .     S
C57   H58    0.95012       .     S
H60   C59    0.95004       .     S
C59   H60    0.95004       .     S
C66   C59    1.35541       .     S
C59   C66    1.35541       .     S
H63   C62    0.94998       .     S
C62   H63    0.94998       .     S
C74   C62    1.34078       .     S
C62   C74    1.34078       .     S
H65   C64    0.94996       .     S
C64   H65    0.94996       .     S
C76   C64    1.37331       .     S
C64   C76    1.37331       .     S
H67   C66    0.94983       .     S
C66   H67    0.94983       .     S
C69   C68    1.46958       .     S
C68   C69    1.46958       .     S
C72   C68    1.35623       .     S
C68   C72    1.35623       .     S
C76   C68    1.33295       .     S
C68   C76    1.33295       .     S
H71   C70    0.94983       .     S
C70   H71    0.94983       .     S
C72   C70    1.35691       .     S
C70   C72    1.35691       .     S
H73   C72    0.95022       .     S
C72   H73    0.95022       .     S
H75   C74    0.95014       .     S
C74   H75    0.95014       .     S
H77   C76    0.95017       .     S
C76   H77    0.95017       .     S
C89   N78    1.40977       .     S
N78   C89    1.40977       .     S
C90   N78    1.41374       .     S
N78   C90    1.41374       .     S
C94   N78    1.41333       .     S
N78   C94    1.41333       .     S
H80   C79    0.95001       .     S
C79   H80    0.95001       .     S
C81   C79    1.38747       .     S
C79   C81    1.38747       .     S
C89   C79    1.38867       .     S
C79   C89    1.38867       .     S
H82   C81    0.95131       .     S
C81   H82    0.95131       .     S
C83   C81    1.39168   1_655     S
C81   C83    1.39168   1_455     S
H84   C83    0.95039       .     S
C83   H84    0.95039       .     S
C85   C83    1.38867       .     S
C83   C85    1.38867       .     S
H86   C85    0.95025       .     S
C85   H86    0.95025       .     S
C87   C85    1.39110   1_455     S
C85   C87    1.39110   1_655     S
H88   C87    0.94939       .     S
C87   H88    0.94939       .     S
C89   C87    1.39048       .     S
C87   C89    1.39048       .     S
H91   C90    0.98190       .     S
C90   H91    0.98190       .     S
H92   C90    0.97966       .     S
C90   H92    0.97966       .     S
H93   C90    0.97906       .     S
C90   H93    0.97906       .     S
H95   C94    0.98097       .     S
C94   H95    0.98097       .     S
H96   C94    0.97935   1_565     S
C94   H96    0.97935   1_545     S
H97   C94    0.98054       .     S
C94   H97    0.98054       .     S
C99   H98    0.95030       .     S
H98   C99    0.95030       .     S
C100  H98    1.31948       .     S
H98   C100   1.31948       .     S
H101  H98    0.63649       .     S
H98   H101   0.63649       .     S
C100  C99    0.57695       .     S
C99   C100   0.57695       .     S
H101  C99    0.45125       .     S
C99   H101   0.45125       .     S
C103  C99    1.39133   1_455     S
C99   C103   1.39133   1_655     S
C118  C99    1.38781       .     S
C99   C118   1.38781       .     S
N127  C99    1.51896       .     S
C99   N127   1.51896       .     S
H132  C99    1.31531       .     S
C99   H132   1.31531       .     S
H101  C100   0.97894       .     S
C100  H101   0.97894       .     S
H102  C100   0.98595       .     S
C100  H102   0.98595       .     S
C103  C100   1.68064   1_455     S
C100  C103   1.68064   1_655     S
C118  C100   0.98755       .     S
C100  C118   0.98755       .     S
N127  C100   1.35646       .     S
C100  N127   1.35646       .     S
H132  C100   0.97983       .     S
C100  H132   0.97983       .     S
H104  C103   0.94927       .     S
C103  H104   0.94927       .     S
C105  C103   1.38944       .     S
C103  C105   1.38944       .     S
C116  C103   1.20302   1_545     S
C103  C116   1.20302   1_565     S
H117  C103   0.95973       .     S
C103  H117   0.95973       .     S
C126  C103   1.49382   1_645     S
C103  C126   1.49382   1_465     S
C116  H104   1.25119   1_545     S
H104  C116   1.25119   1_565     S
H117  H104   0.37307       .     S
H104  H117   0.37307       .     S
N106  C105   1.34742   1_545     S
C105  N106   1.34742   1_565     S
C116  C105   1.13632   1_545     S
C105  C116   1.13632   1_565     S
C122  C105   1.39459   1_655     S
C105  C122   1.39459   1_455     S
C124  C105   1.49382   1_645     S
C105  C124   1.49382   1_465     S
C126  C105   0.38365   1_645     S
C105  C126   0.38365   1_465     S
N127  C105   1.61150   1_655     S
C105  N127   1.61150   1_455     S
C107  N106   1.44968   1_565     S
N106  C107   1.44968   1_545     S
C112  N106   1.24834       .     S
N106  C112   1.24834       .     S
C114  N106   1.15741       .     S
N106  C114   1.15741       .     S
C116  N106   1.35735       .     S
N106  C116   1.35735       .     S
C126  N106   1.61150   1_655     S
N106  C126   1.61150   1_455     S
C133  N106   1.35646       .     S
N106  C133   1.35646       .     S
C135  N106   1.51896       .     S
N106  C135   1.51896       .     S
H108  C107   0.98286       .     S
C107  H108   0.98286       .     S
H109  C107   0.97352       .     S
C107  H109   0.97352       .     S
H110  C107   0.98267       .     S
C107  H110   0.98267       .     S
C114  C107   1.10969   1_545     S
C107  C114   1.10969   1_565     S
C116  C107   1.77077   1_545     S
C107  C116   1.77077   1_565     S
C114  H110   1.23315   1_545     S
H110  C114   1.23315   1_565     S
C112  H111   0.80732       .     S
H111  C112   0.80732       .     S
C133  H111   0.97983       .     S
H111  C133   0.97983       .     S
C135  H111   1.31531       .     S
H111  C135   1.31531       .     S
H113  C112   0.95195       .     S
C112  H113   0.95195       .     S
C114  C112   1.39022       .     S
C112  C114   1.39022       .     S
C133  C112   0.98755       .     S
C112  C133   0.98755       .     S
C135  C112   1.38781       .     S
C112  C135   1.38781       .     S
H115  C114   0.94703       .     S
C114  H115   0.94703       .     S
C116  C114   1.39133       .     S
C114  C116   1.39133       .     S
H117  C116   0.94956   1_565     S
C116  H117   0.94956   1_545     S
C126  C116   1.39459   1_655     S
C116  C126   1.39459   1_455     S
H119  C118   0.95195       .     S
C118  H119   0.95195       .     S
C120  C118   1.39022       .     S
C118  C120   1.39022       .     S
N127  C118   1.24834       .     S
C118  N127   1.24834       .     S
H132  C118   0.80732       .     S
C118  H132   0.80732       .     S
H121  C120   0.94696       .     S
C120  H121   0.94696       .     S
C122  C120   1.39133       .     S
C120  C122   1.39133       .     S
N127  C120   1.15741       .     S
C120  N127   1.15741       .     S
C128  C120   1.10969   1_545     S
C120  C128   1.10969   1_565     S
H131  C120   1.23315   1_545     S
C120  H131   1.23315   1_565     S
H123  C122   0.94956   1_545     S
C122  H123   0.94956   1_565     S
C124  C122   1.20302   1_545     S
C122  C124   1.20302   1_565     S
H125  C122   1.25119   1_545     S
C122  H125   1.25119   1_565     S
C126  C122   1.13632   1_545     S
C122  C126   1.13632   1_565     S
N127  C122   1.35735       .     S
C122  N127   1.35735       .     S
C128  C122   1.77077   1_545     S
C122  C128   1.77077   1_565     S
C124  H123   0.95973       .     S
H123  C124   0.95973       .     S
H125  H123   0.37307       .     S
H123  H125   0.37307       .     S
H125  C124   0.94927       .     S
C124  H125   0.94927       .     S
C126  C124   1.38945       .     S
C124  C126   1.38945       .     S
C133  C124   1.68064   1_455     S
C124  C133   1.68064   1_655     S
C135  C124   1.39133   1_455     S
C124  C135   1.39133   1_655     S
N127  C126   1.34742   1_565     S
C126  N127   1.34742   1_545     S
C128  N127   1.44968   1_545     S
N127  C128   1.44968   1_565     S
H129  C128   0.98280       .     S
C128  H129   0.98280       .     S
H130  C128   0.97356       .     S
C128  H130   0.97356       .     S
H131  C128   0.98267       .     S
C128  H131   0.98267       .     S
H134  C133   0.97894       .     S
C133  H134   0.97894       .     S
C135  C133   0.57695       .     S
C133  C135   0.57695       .     S
H136  C133   0.98595       .     S
C133  H136   0.98595       .     S
H137  C133   1.31948       .     S
C133  H137   1.31948       .     S
C135  H134   0.45125       .     S
H134  C135   0.45125       .     S
H137  H134   0.63649       .     S
H134  H137   0.63649       .     S
H137  C135   0.95030       .     S
C135  H137   0.95030       .     S
