data_I
_chemical_name_common  '/data/user2/wty/HOF/MOFDiff/mofdiff/data/test/264-cp-py-1-tcb'
_cell_length_a  6.74280
_cell_length_b 15.80230
_cell_length_c 27.63060
_cell_angle_alpha 90.00000
_cell_angle_beta  93.04400
_cell_angle_gamma 90.00000
_space_group_name_H-M_alt      'P 1'


loop_
_space_group_symop_operation_xyz
  'x, y, z' 

loop_
_atom_site_label
_atom_site_fract_x
_atom_site_fract_y
_atom_site_fract_z
_atom_site_type_symbol
O0      0.9875  0.72455  0.31879     O
H1     0.91795  0.74491   0.2955     H
O2      0.2559     0.29   0.2492     O
O3        0.02   0.3006  0.30035     O
H4     0.95316  0.27907  0.27698     H
C5      0.0056  0.45491  0.49816     C
O6      0.2231   0.7438  0.26801     O
C7      0.1467  0.40933  0.52822     C
C8      0.8749  0.41028  0.46507     C
C9      0.5976  0.41346  0.39874     C
C10     0.5777  0.59222  0.40572     C
C11     0.8864  0.32244  0.46284     C
H12    0.79932  0.29232  0.44086     H
C13     0.7318  0.45789    0.435     C
C14     0.7218  0.54496   0.4383     C
C15      0.153  0.32138  0.52455     C
H16    0.24703  0.29049  0.54435     H
C17     0.3073   0.6749  0.34181     C
C18     0.5326   0.3575  0.31802     C
H19    0.57942  0.34303  0.28727     H
C20     0.0238  0.27821  0.49238     C
H21    0.02947  0.21823  0.49057     H
C22     0.3392   0.3425  0.32795     C
C23     0.6607   0.3943  0.35347     C
H24    0.79397  0.40621  0.34617     H
C25     0.6309   0.6149  0.36005     C
H26     0.7599  0.60138  0.35014     H
C27     0.1663   0.7168  0.30667     C
C28     0.1991   0.3071  0.28965     C
C29     0.4011    0.398  0.40844     C
H30    0.35452  0.41132  0.43939     H
C31     0.4982   0.6574  0.32814     C
H32    0.53825  0.67432  0.29715     H
C33     0.2539   0.6528   0.3875     C
H34    0.12326  0.66425  0.39702     H
C35      0.389   0.6142  0.41952     C
H36    0.35269  0.60235  0.45158     H
C37     0.2726   0.3631  0.37291     C
H38    0.13773   0.3534  0.37956     H
O39     0.0125  0.27545  0.68121     O
H40    0.08204  0.25509   0.7045     H
O41     0.7441     0.71   0.7508     O
O42       0.98   0.6994  0.69965     O
H43    0.04684  0.72093  0.72303     H
C44     0.9944  0.54509  0.50184     C
O45     0.7769   0.2562  0.73199     O
C46     0.8533  0.59067  0.47178     C
C47     0.1251  0.58972  0.53493     C
C48     0.4024  0.58654  0.60126     C
C49     0.4223  0.40778  0.59428     C
C50     0.1136  0.67756  0.53716     C
H51    0.20068  0.70768  0.55914     H
C52     0.2682  0.54211    0.565     C
C53     0.2782  0.45504   0.5617     C
C54      0.847  0.67862  0.47545     C
H55    0.75297  0.70951  0.45565     H
C56     0.6927   0.3251  0.65819     C
C57     0.4674   0.6425  0.68198     C
H58    0.42058  0.65698  0.71273     H
C59     0.9762  0.72179  0.50762     C
H60    0.97052  0.78177  0.50943     H
C61     0.6608   0.6575  0.67205     C
C62     0.3393   0.6057  0.64653     C
H63    0.20603  0.59379  0.65383     H
C64     0.3691   0.3851  0.63995     C
H65     0.2401  0.39862  0.64986     H
C66     0.8337   0.2832  0.69333     C
C67     0.8009   0.6929  0.71035     C
C68     0.5989    0.602  0.59156     C
H69    0.64548  0.58868  0.56061     H
C70     0.5018   0.3426  0.67186     C
H71    0.46175  0.32568  0.70285     H
C72     0.7461   0.3472   0.6125     C
H73    0.87674  0.33575  0.60299     H
C74      0.611   0.3858  0.58048     C
H75    0.64731  0.39765  0.54843     H
C76     0.7274   0.6369  0.62709     C
H77    0.86227   0.6466  0.62044     H
loop_
_geom_bond_atom_site_label_1
_geom_bond_atom_site_label_2
_geom_bond_distance
_geom_bond_site_symmetry_2
_ccdc_geom_bond_type
O0    H1     0.83994       .     S
H1    O0     0.83994       .     S
O0    C27    1.27418   1_655     S
C27   O0     1.27418   1_455     S
O2    C28    1.23058       .     S
C28   O2     1.23058       .     S
O3    H4     0.83960   1_455     S
H4    O3     0.83960   1_655     S
O3    C28    1.26264       .     S
C28   O3     1.26264       .     S
C5    C7     1.42474       .     S
C7    C5     1.42474       .     S
C5    C8     1.42282   1_455     S
C8    C5     1.42282   1_655     S
C5    C44    1.43095   1_455     S
C44   C5     1.43095   1_655     S
O6    C27    1.23013       .     S
C27   O6     1.23013       .     S
C7    C15    1.39432       .     S
C15   C7     1.39432       .     S
C7    C53    1.44104       .     S
C53   C7     1.44104       .     S
C8    C11    1.39179       .     S
C11   C8     1.39179       .     S
C8    C13    1.44990       .     S
C13   C8     1.44990       .     S
C9    C13    1.48971       .     S
C13   C9     1.48971       .     S
C9    C23    1.37616       .     S
C23   C9     1.37616       .     S
C9    C29    1.38735       .     S
C29   C9     1.38735       .     S
C10   C14    1.48973       .     S
C14   C10    1.48973       .     S
C10   C25    1.37752       .     S
C25   C10    1.37752       .     S
C10   C35    1.39157       .     S
C35   C10    1.39157       .     S
C11   H12    0.94988       .     S
H12   C11    0.94988       .     S
C11   C20    1.39022   1_655     S
C20   C11    1.39022   1_455     S
C13   C14    1.38081       .     S
C14   C13    1.38081       .     S
C14   C46    1.44104       .     S
C46   C14    1.44104       .     S
C15   H16    0.95012       .     S
H16   C15    0.95012       .     S
C15   C20    1.39003       .     S
C20   C15    1.39003       .     S
C17   C27    1.47884       .     S
C27   C17    1.47884       .     S
C17   C31    1.38840       .     S
C31   C17    1.38840       .     S
C17   C33    1.37610       .     S
C33   C17    1.37610       .     S
C18   H19    0.94991       .     S
H19   C18    0.94991       .     S
C18   C22    1.36749       .     S
C22   C18    1.36749       .     S
C18   C23    1.39779       .     S
C23   C18    1.39779       .     S
C20   H21    0.95002       .     S
H21   C20    0.95002       .     S
C22   C28    1.48965       .     S
C28   C22    1.48965       .     S
C22   C37    1.38207       .     S
C37   C22    1.38207       .     S
C23   H24    0.95019       .     S
H24   C23    0.95019       .     S
C25   H26    0.95000       .     S
H26   C25    0.95000       .     S
C25   C31    1.39472       .     S
C31   C25    1.39472       .     S
C29   H30    0.95015       .     S
H30   C29    0.95015       .     S
C29   C37    1.38864       .     S
C37   C29    1.38864       .     S
C31   H32    0.94983       .     S
H32   C31    0.94983       .     S
C33   H34    0.94999       .     S
H34   C33    0.94999       .     S
C33   C35    1.37806       .     S
C35   C33    1.37806       .     S
C35   H36    0.95013       .     S
H36   C35    0.95013       .     S
C37   H38    0.94974       .     S
H38   C37    0.94974       .     S
O39   H40    0.83991       .     S
H40   O39    0.83991       .     S
O39   C66    1.27418   1_455     S
C66   O39    1.27418   1_655     S
O41   C67    1.23058       .     S
C67   O41    1.23058       .     S
O42   H43    0.83980   1_655     S
H43   O42    0.83980   1_455     S
O42   C67    1.26264       .     S
C67   O42    1.26264       .     S
C44   C46    1.42474       .     S
C46   C44    1.42474       .     S
C44   C47    1.42282   1_655     S
C47   C44    1.42282   1_455     S
O45   C66    1.23013       .     S
C66   O45    1.23013       .     S
C46   C54    1.39432       .     S
C54   C46    1.39432       .     S
C47   C50    1.39179       .     S
C50   C47    1.39179       .     S
C47   C52    1.44990       .     S
C52   C47    1.44990       .     S
C48   C52    1.48971       .     S
C52   C48    1.48971       .     S
C48   C62    1.37616       .     S
C62   C48    1.37616       .     S
C48   C68    1.38735       .     S
C68   C48    1.38735       .     S
C49   C53    1.48973       .     S
C53   C49    1.48973       .     S
C49   C64    1.37752       .     S
C64   C49    1.37752       .     S
C49   C74    1.39157       .     S
C74   C49    1.39157       .     S
C50   H51    0.94988       .     S
H51   C50    0.94988       .     S
C50   C59    1.39023   1_455     S
C59   C50    1.39023   1_655     S
C52   C53    1.38081       .     S
C53   C52    1.38081       .     S
C54   H55    0.95012       .     S
H55   C54    0.95012       .     S
C54   C59    1.39003       .     S
C59   C54    1.39003       .     S
C56   C66    1.47884       .     S
C66   C56    1.47884       .     S
C56   C70    1.38840       .     S
C70   C56    1.38840       .     S
C56   C72    1.37610       .     S
C72   C56    1.37610       .     S
C57   H58    0.94995       .     S
H58   C57    0.94995       .     S
C57   C61    1.36749       .     S
C61   C57    1.36749       .     S
C57   C62    1.39779       .     S
C62   C57    1.39779       .     S
C59   H60    0.95002       .     S
H60   C59    0.95002       .     S
C61   C67    1.48965       .     S
C67   C61    1.48965       .     S
C61   C76    1.38207       .     S
C76   C61    1.38207       .     S
C62   H63    0.95019       .     S
H63   C62    0.95019       .     S
C64   H65    0.95000       .     S
H65   C64    0.95000       .     S
C64   C70    1.39472       .     S
C70   C64    1.39472       .     S
C68   H69    0.95015       .     S
H69   C68    0.95015       .     S
C68   C76    1.38864       .     S
C76   C68    1.38864       .     S
C70   H71    0.94983       .     S
H71   C70    0.94983       .     S
C72   H73    0.94990       .     S
H73   C72    0.94990       .     S
C72   C74    1.37806       .     S
C74   C72    1.37806       .     S
C74   H75    0.94987       .     S
H75   C74    0.94987       .     S
C76   H77    0.94974       .     S
H77   C76    0.94974       .     S
H1    O0     0.83994       .     S
O0    H1     0.83994       .     S
C27   O0     1.27418   1_455     S
O0    C27    1.27418   1_655     S
C28   O2     1.23058       .     S
O2    C28    1.23058       .     S
H4    O3     0.83960   1_655     S
O3    H4     0.83960   1_455     S
C28   O3     1.26264       .     S
O3    C28    1.26264       .     S
C7    C5     1.42474       .     S
C5    C7     1.42474       .     S
C8    C5     1.42282   1_655     S
C5    C8     1.42282   1_455     S
C44   C5     1.43095   1_655     S
C5    C44    1.43095   1_455     S
C27   O6     1.23013       .     S
O6    C27    1.23013       .     S
C15   C7     1.39432       .     S
C7    C15    1.39432       .     S
C53   C7     1.44104       .     S
C7    C53    1.44104       .     S
C11   C8     1.39179       .     S
C8    C11    1.39179       .     S
C13   C8     1.44990       .     S
C8    C13    1.44990       .     S
C13   C9     1.48971       .     S
C9    C13    1.48971       .     S
C23   C9     1.37616       .     S
C9    C23    1.37616       .     S
C29   C9     1.38735       .     S
C9    C29    1.38735       .     S
C14   C10    1.48973       .     S
C10   C14    1.48973       .     S
C25   C10    1.37752       .     S
C10   C25    1.37752       .     S
C35   C10    1.39157       .     S
C10   C35    1.39157       .     S
H12   C11    0.94988       .     S
C11   H12    0.94988       .     S
C20   C11    1.39022   1_455     S
C11   C20    1.39022   1_655     S
C14   C13    1.38081       .     S
C13   C14    1.38081       .     S
C46   C14    1.44104       .     S
C14   C46    1.44104       .     S
H16   C15    0.95012       .     S
C15   H16    0.95012       .     S
C20   C15    1.39003       .     S
C15   C20    1.39003       .     S
C27   C17    1.47884       .     S
C17   C27    1.47884       .     S
C31   C17    1.38840       .     S
C17   C31    1.38840       .     S
C33   C17    1.37610       .     S
C17   C33    1.37610       .     S
H19   C18    0.94991       .     S
C18   H19    0.94991       .     S
C22   C18    1.36749       .     S
C18   C22    1.36749       .     S
C23   C18    1.39779       .     S
C18   C23    1.39779       .     S
H21   C20    0.95002       .     S
C20   H21    0.95002       .     S
C28   C22    1.48965       .     S
C22   C28    1.48965       .     S
C37   C22    1.38207       .     S
C22   C37    1.38207       .     S
H24   C23    0.95019       .     S
C23   H24    0.95019       .     S
H26   C25    0.95000       .     S
C25   H26    0.95000       .     S
C31   C25    1.39472       .     S
C25   C31    1.39472       .     S
H30   C29    0.95015       .     S
C29   H30    0.95015       .     S
C37   C29    1.38864       .     S
C29   C37    1.38864       .     S
H32   C31    0.94983       .     S
C31   H32    0.94983       .     S
H34   C33    0.94999       .     S
C33   H34    0.94999       .     S
C35   C33    1.37806       .     S
C33   C35    1.37806       .     S
H36   C35    0.95013       .     S
C35   H36    0.95013       .     S
H38   C37    0.94974       .     S
C37   H38    0.94974       .     S
H40   O39    0.83991       .     S
O39   H40    0.83991       .     S
C66   O39    1.27418   1_655     S
O39   C66    1.27418   1_455     S
C67   O41    1.23058       .     S
O41   C67    1.23058       .     S
H43   O42    0.83980   1_455     S
O42   H43    0.83980   1_655     S
C67   O42    1.26264       .     S
O42   C67    1.26264       .     S
C46   C44    1.42474       .     S
C44   C46    1.42474       .     S
C47   C44    1.42282   1_455     S
C44   C47    1.42282   1_655     S
C66   O45    1.23013       .     S
O45   C66    1.23013       .     S
C54   C46    1.39432       .     S
C46   C54    1.39432       .     S
C50   C47    1.39179       .     S
C47   C50    1.39179       .     S
C52   C47    1.44990       .     S
C47   C52    1.44990       .     S
C52   C48    1.48971       .     S
C48   C52    1.48971       .     S
C62   C48    1.37616       .     S
C48   C62    1.37616       .     S
C68   C48    1.38735       .     S
C48   C68    1.38735       .     S
C53   C49    1.48973       .     S
C49   C53    1.48973       .     S
C64   C49    1.37752       .     S
C49   C64    1.37752       .     S
C74   C49    1.39157       .     S
C49   C74    1.39157       .     S
H51   C50    0.94988       .     S
C50   H51    0.94988       .     S
C59   C50    1.39023   1_655     S
C50   C59    1.39023   1_455     S
C53   C52    1.38081       .     S
C52   C53    1.38081       .     S
H55   C54    0.95012       .     S
C54   H55    0.95012       .     S
C59   C54    1.39003       .     S
C54   C59    1.39003       .     S
C66   C56    1.47884       .     S
C56   C66    1.47884       .     S
C70   C56    1.38840       .     S
C56   C70    1.38840       .     S
C72   C56    1.37610       .     S
C56   C72    1.37610       .     S
H58   C57    0.94995       .     S
C57   H58    0.94995       .     S
C61   C57    1.36749       .     S
C57   C61    1.36749       .     S
C62   C57    1.39779       .     S
C57   C62    1.39779       .     S
H60   C59    0.95002       .     S
C59   H60    0.95002       .     S
C67   C61    1.48965       .     S
C61   C67    1.48965       .     S
C76   C61    1.38207       .     S
C61   C76    1.38207       .     S
H63   C62    0.95019       .     S
C62   H63    0.95019       .     S
H65   C64    0.95000       .     S
C64   H65    0.95000       .     S
C70   C64    1.39472       .     S
C64   C70    1.39472       .     S
H69   C68    0.95015       .     S
C68   H69    0.95015       .     S
C76   C68    1.38864       .     S
C68   C76    1.38864       .     S
H71   C70    0.94983       .     S
C70   H71    0.94983       .     S
H73   C72    0.94990       .     S
C72   H73    0.94990       .     S
C74   C72    1.37806       .     S
C72   C74    1.37806       .     S
H75   C74    0.94987       .     S
C74   H75    0.94987       .     S
H77   C76    0.94974       .     S
C76   H77    0.94974       .     S
