data_I
_chemical_name_common  '/data/user2/wty/HOF/MOFDiff/mofdiff/data/test/264-cp-py-2-tcb'
_cell_length_a 27.53990
_cell_length_b 11.82060
_cell_length_c  7.23550
_cell_angle_alpha 90.00000
_cell_angle_beta  92.89800
_cell_angle_gamma 90.00000
_space_group_name_H-M_alt      'P 1'


loop_
_space_group_symop_operation_xyz
  'x, y, z' 

loop_
_atom_site_label
_atom_site_fract_x
_atom_site_fract_y
_atom_site_fract_z
_atom_site_type_symbol
Cl0    0.25079      0.5  0.12313    Cl
Cl1    0.40321      0.5  0.78925    Cl
Cl2    0.43744      0.5  0.37764    Cl
C3     0.29401      0.5   0.3078     C
C4     0.36165      0.5   0.6001     C
C5     0.34256      0.5   0.2726     C
H6     0.35265      0.5    0.149     H
C7     0.37675      0.5   0.4211     C
C8     0.27824      0.5    0.486     C
H9     0.24449      0.5  0.50759     H
C10     0.3127      0.5   0.6333     C
H11    0.30256      0.5  0.75687     H
loop_
_geom_bond_atom_site_label_1
_geom_bond_atom_site_label_2
_geom_bond_distance
_geom_bond_site_symmetry_2
_ccdc_geom_bond_type
Cl0   C3     1.74394       .     S
C3    Cl0    1.74394       .     S
Cl1   C4     1.73916       .     S
C4    Cl1    1.73916       .     S
Cl2   C7     1.71627       .     S
C7    Cl2    1.71627       .     S
C3    C5     1.37369       .     S
C5    C3     1.37369       .     S
C3    C8     1.38120       .     S
C8    C3     1.38120       .     S
C4    C7     1.38015       .     S
C7    C4     1.38015       .     S
C4    C10    1.38122       .     S
C10   C4     1.38122       .     S
C5    H6     0.94981       .     S
H6    C5     0.94981       .     S
C5    C7     1.39240       .     S
C7    C5     1.39240       .     S
C8    H9     0.95026       .     S
H9    C8     0.95026       .     S
C8    C10    1.39078       .     S
C10   C8     1.39078       .     S
C10   H11    0.95007       .     S
H11   C10    0.95007       .     S
C3    Cl0    1.74394       .     S
Cl0   C3     1.74394       .     S
C4    Cl1    1.73916       .     S
Cl1   C4     1.73916       .     S
C7    Cl2    1.71627       .     S
Cl2   C7     1.71627       .     S
C5    C3     1.37369       .     S
C3    C5     1.37369       .     S
C8    C3     1.38120       .     S
C3    C8     1.38120       .     S
C7    C4     1.38015       .     S
C4    C7     1.38015       .     S
C10   C4     1.38122       .     S
C4    C10    1.38122       .     S
H6    C5     0.94981       .     S
C5    H6     0.94981       .     S
C7    C5     1.39240       .     S
C5    C7     1.39240       .     S
H9    C8     0.95026       .     S
C8    H9     0.95026       .     S
C10   C8     1.39078       .     S
C8    C10    1.39078       .     S
H11   C10    0.95007       .     S
C10   H11    0.95007       .     S
