data_I
_chemical_name_common  '/data/user2/wty/HOF/MOFDiff/mofdiff/data/test/264-cp-py-1-menaph'
_cell_length_a  7.65540
_cell_length_b 15.34200
_cell_length_c 24.52400
_cell_angle_alpha 90.00000
_cell_angle_beta  94.76300
_cell_angle_gamma 90.00000
_space_group_name_H-M_alt      'P 1'


loop_
_space_group_symop_operation_xyz
  'x, y, z' 

loop_
_atom_site_label
_atom_site_fract_x
_atom_site_fract_y
_atom_site_fract_z
_atom_site_type_symbol
O0      0.1985   0.6875  0.24339     O
H1      0.1087  0.70048  0.22299     H
O2       1e-04   0.6408    0.298     O
O3      0.0606   0.2422   0.3253     O
O4       0.255   0.2087   0.2664     O
H5     0.16564  0.18849  0.24855     H
C6      0.5731   0.5623   0.3987     C
C7      0.8852   0.3976   0.4748     C
C8      0.7227   0.5231   0.4354     C
C9      0.6106   0.3754   0.4087     C
C10     0.7395   0.4353   0.4404     C
C11     0.1502   0.4177   0.5366     C
C12     0.0084   0.4543   0.5028     C
C13      0.461   0.3482   0.4315     C
H14     0.4467  0.35966  0.46892     H
C15     0.9038   0.3079   0.4802     C
H16    0.82177  0.27027  0.46086     H
C17     0.2116   0.2417   0.3104     C
C18     0.3547   0.2842   0.3459     C
C19     0.1644   0.3264   0.5411     C
H20    0.25946  0.30173  0.56331     H
C21     0.6075   0.5997   0.3499     C
H22    0.72506  0.60415  0.34049     H
C23     0.4021    0.557   0.4124     C
H24    0.37777  0.53297  0.44668     H
C25     0.5088   0.3076   0.3237     C
H26    0.52753  0.29189  0.28712     H
C27      0.153   0.6532   0.2873     C
C28      0.638   0.3551   0.3559     C
H29      0.743  0.37269  0.34097     H
C30     0.3308    0.304   0.3994     C
H31    0.22538  0.28752  0.41455     H
C32     0.0431   0.2725    0.514     C
H33    0.05344  0.21108   0.5181     H
C34     0.2668   0.5865   0.3768     C
H35    0.14938  0.58219  0.38628     H
C36     0.4721   0.6309   0.3142     C
H37    0.49691  0.65817   0.2809     H
C38     0.3014   0.6222   0.3272     C
O39     0.8015   0.3125  0.75661     O
H40     0.8913  0.29952  0.77701     H
O41     0.9999   0.3592    0.702     O
O42     0.9394   0.7578   0.6747     O
O43      0.745   0.7913   0.7336     O
H44    0.83436  0.81151  0.75145     H
C45     0.4269   0.4377   0.6013     C
C46     0.1148   0.6024   0.5252     C
C47     0.2773   0.4769   0.5646     C
C48     0.3894   0.6246   0.5913     C
C49     0.2605   0.5647   0.5596     C
C50     0.8498   0.5823   0.4634     C
C51     0.9916   0.5457   0.4972     C
C52      0.539   0.6518   0.5685     C
H53     0.5533  0.64034  0.53109     H
C54     0.0962   0.6921   0.5198     C
H55    0.17823  0.72973  0.53914     H
C56     0.7884   0.7583   0.6896     C
C57     0.6453   0.7158   0.6541     C
C58     0.8356   0.6736   0.4589     C
H59    0.74054  0.69827  0.43669     H
C60     0.3925   0.4003   0.6501     C
H61    0.27494  0.39585  0.65951     H
C62     0.5979    0.443   0.5876     C
H63    0.62223  0.46703  0.55332     H
C64     0.4912   0.6924   0.6763     C
H65    0.47247  0.70811  0.71288     H
C66      0.847   0.3468   0.7127     C
C67      0.362   0.6449   0.6441     C
H68      0.257  0.62731  0.65904     H
C69     0.6692    0.696   0.6006     C
H70    0.77462  0.71248  0.58545     H
C71     0.9569   0.7275    0.486     C
H72    0.94656  0.78892   0.4819     H
C73     0.7332   0.4135   0.6232     C
H74    0.85062  0.41781  0.61372     H
C75     0.5279   0.3691   0.6858     C
H76     0.5031  0.34183   0.7191     H
C77     0.6986   0.3778   0.6728     C
C78     0.9057   0.0127   0.4976     C
C79     0.8514   0.0677   0.4519     C
C80      0.967   0.0924   0.4169     C
H81    0.92623  0.12713  0.38643     H
C82      0.857   0.9294   0.5777     C
H83    0.77883  0.90907  0.60296     H
C84        0.8   0.9831   0.5333     C
H85    0.67941  0.99873  0.52874     H
C86     0.0943   0.9873   0.5024     C
C87     0.1486   0.9323   0.5481     C
C88      0.033   0.9076   0.5831     C
H89    0.07377  0.87287  0.61357     H
C90      0.143   0.0706   0.4223     C
H91    0.22117  0.09093  0.39704     H
C92        0.2   0.0169   0.4667     C
H93    0.32059  0.00127  0.47126     H
C94      0.345   0.8985   0.5629     C
H95    0.41897  0.94742  0.57637     H
H96    0.34529  0.85351  0.59123     H
H97    0.39121  0.87408  0.53006     H
C98      0.655   0.1015   0.4371     C
H99    0.58103  0.05258  0.42362     H
H100   0.65471  0.14649  0.40877     H
H101   0.60879  0.12592  0.46994     H
H102     0.731   0.0842   0.4491     H
C103     0.232    0.953   0.2807     C
H104   0.29028  0.99216  0.25829     H
C105    0.0563   0.9331   0.2679     C
H106   0.99445  0.95861  0.23668     H
C107    0.9711   0.8758   0.3006     C
H108     0.851  0.86213  0.29187     H
C109    0.0616   0.8384   0.3463     C
H110   0.00339  0.79921  0.36867     H
C111    0.2374   0.8583   0.3591     C
C112    0.3226   0.9156   0.3263     C
C113    0.4983   0.9355   0.3392     C
C114    0.5888   0.8982   0.3848     C
H115   0.70893   0.9118  0.39355     H
C116    0.5036   0.8409   0.4176     C
H117   0.56549  0.81532  0.44874     H
C118    0.3279   0.8209   0.4047     C
H119   0.26966  0.78176  0.42713     H
C120     0.569   0.9962   0.3068     C
H121   0.67154  0.97117  0.29094     H
H122   0.60594   0.0473  0.32891     H
H123   0.48204  0.01373  0.27741     H
loop_
_geom_bond_atom_site_label_1
_geom_bond_atom_site_label_2
_geom_bond_distance
_geom_bond_site_symmetry_2
_ccdc_geom_bond_type
O0    H1     0.83990       .     S
H1    O0     0.83990       .     S
O0    C27    1.27285       .     S
C27   O0     1.27285       .     S
O2    C27    1.23538       .     S
C27   O2     1.23538       .     S
O3    C17    1.24096       .     S
C17   O3     1.24096       .     S
O4    H5     0.84024       .     S
H5    O4     0.84024       .     S
O4    C17    1.26119       .     S
C17   O4     1.26119       .     S
C6    C8     1.52058       .     S
C8    C6     1.52058       .     S
C6    C21    1.37229       .     S
C21   C6     1.37229       .     S
C6    C23    1.38065       .     S
C23   C6     1.38065       .     S
C7    C10    1.46085       .     S
C10   C7     1.46085       .     S
C7    C12    1.41782   1_655     S
C12   C7     1.41782   1_455     S
C7    C15    1.38872       .     S
C15   C7     1.38872       .     S
C8    C10    1.35773       .     S
C10   C8     1.35773       .     S
C8    C50    1.46021       .     S
C50   C8     1.46021       .     S
C9    C10    1.51501       .     S
C10   C9     1.51501       .     S
C9    C13    1.38012       .     S
C13   C9     1.38012       .     S
C9    C28    1.36484       .     S
C28   C9     1.36484       .     S
C11   C12    1.42526       .     S
C12   C11    1.42526       .     S
C11   C19    1.40856       .     S
C19   C11    1.40856       .     S
C11   C47    1.46021       .     S
C47   C11    1.46021       .     S
C12   C51    1.41379   1_455     S
C51   C12    1.41379   1_655     S
C13   H14    0.94960       .     S
H14   C13    0.94960       .     S
C13   C30    1.39382       .     S
C30   C13    1.39382       .     S
C15   H16    0.95034       .     S
H16   C15    0.95034       .     S
C15   C32    1.40445   1_655     S
C32   C15    1.40445   1_455     S
C17   C18    1.49158       .     S
C18   C17    1.49158       .     S
C18   C25    1.38695       .     S
C25   C18    1.38695       .     S
C18   C30    1.37370       .     S
C30   C18    1.37370       .     S
C19   H20    0.95062       .     S
H20   C19    0.95062       .     S
C19   C32    1.37307       .     S
C32   C19    1.37307       .     S
C21   H22    0.94992       .     S
H22   C21    0.94992       .     S
C21   C36    1.38541       .     S
C36   C21    1.38541       .     S
C23   H24    0.95045       .     S
H24   C23    0.95045       .     S
C23   C34    1.37467       .     S
C34   C23    1.37467       .     S
C25   H26    0.95120       .     S
H26   C25    0.95120       .     S
C25   C28    1.41535       .     S
C28   C25    1.41535       .     S
C27   C38    1.51318       .     S
C38   C27    1.51318       .     S
C28   H29    0.94968       .     S
H29   C28    0.94968       .     S
C30   H31    0.95030       .     S
H31   C30    0.95030       .     S
C32   H33    0.95026       .     S
H33   C32    0.95026       .     S
C34   H35    0.94929       .     S
H35   C34    0.94929       .     S
C34   C38    1.37959       .     S
C38   C34    1.37959       .     S
C36   H37    0.95068       .     S
H37   C36    0.95068       .     S
C36   C38    1.37707       .     S
C38   C36    1.37707       .     S
O39   H40    0.83990       .     S
H40   O39    0.83990       .     S
O39   C66    1.27285       .     S
C66   O39    1.27285       .     S
O41   C66    1.23538       .     S
C66   O41    1.23538       .     S
O42   C56    1.24096       .     S
C56   O42    1.24096       .     S
O43   H44    0.84024       .     S
H44   O43    0.84024       .     S
O43   C56    1.26119       .     S
C56   O43    1.26119       .     S
C45   C47    1.52058       .     S
C47   C45    1.52058       .     S
C45   C60    1.37229       .     S
C60   C45    1.37229       .     S
C45   C62    1.38065       .     S
C62   C45    1.38065       .     S
C46   C49    1.46085       .     S
C49   C46    1.46085       .     S
C46   C51    1.41782   1_455     S
C51   C46    1.41782   1_655     S
C46   C54    1.38872       .     S
C54   C46    1.38872       .     S
C47   C49    1.35773       .     S
C49   C47    1.35773       .     S
C48   C49    1.51501       .     S
C49   C48    1.51501       .     S
C48   C52    1.38012       .     S
C52   C48    1.38012       .     S
C48   C67    1.36484       .     S
C67   C48    1.36484       .     S
C50   C51    1.42526       .     S
C51   C50    1.42526       .     S
C50   C58    1.40856       .     S
C58   C50    1.40856       .     S
C52   H53    0.94936       .     S
H53   C52    0.94936       .     S
C52   C69    1.39382       .     S
C69   C52    1.39382       .     S
C54   H55    0.95034       .     S
H55   C54    0.95034       .     S
C54   C71    1.40444   1_455     S
C71   C54    1.40445   1_655     S
C56   C57    1.49158       .     S
C57   C56    1.49158       .     S
C57   C64    1.38695       .     S
C64   C57    1.38695       .     S
C57   C69    1.37370       .     S
C69   C57    1.37370       .     S
C58   H59    0.95062       .     S
H59   C58    0.95062       .     S
C58   C71    1.37307       .     S
C71   C58    1.37307       .     S
C60   H61    0.94992       .     S
H61   C60    0.94992       .     S
C60   C75    1.38541       .     S
C75   C60    1.38541       .     S
C62   H63    0.95045       .     S
H63   C62    0.95045       .     S
C62   C73    1.37467       .     S
C73   C62    1.37467       .     S
C64   H65    0.95120       .     S
H65   C64    0.95120       .     S
C64   C67    1.41535       .     S
C67   C64    1.41535       .     S
C66   C77    1.51318       .     S
C77   C66    1.51318       .     S
C67   H68    0.94979       .     S
H68   C67    0.94979       .     S
C69   H70    0.95030       .     S
H70   C69    0.95030       .     S
C71   H72    0.95026       .     S
H72   C71    0.95026       .     S
C73   H74    0.94929       .     S
H74   C73    0.94929       .     S
C73   C77    1.37959       .     S
C77   C73    1.37959       .     S
C75   H76    0.95066       .     S
H76   C75    0.95066       .     S
C75   C77    1.37707       .     S
C77   C75    1.37707       .     S
C78   C79    1.43649       .     S
C79   C78    1.43649       .     S
C78   C84    1.32104   1_545     S
C84   C78    1.32104   1_565     S
C78   C86    1.49066   1_645     S
C86   C78    1.49066   1_465     S
C79   C80    1.33778       .     S
C80   C79    1.33778       .     S
C79   C98    1.60331       .     S
C98   C79    1.60331       .     S
C79   H102   0.95280       .     S
H102  C79    0.95280       .     S
C80   H81    0.94919       .     S
H81   C80    0.94919       .     S
C80   C90    1.38388   1_655     S
C90   C80    1.38388   1_455     S
C82   H83    0.94906       .     S
H83   C82    0.94906       .     S
C82   C84    1.40566       .     S
C84   C82    1.40566       .     S
C82   C88    1.38388   1_655     S
C88   C82    1.38388   1_455     S
C84   H85    0.95137       .     S
H85   C84    0.95137       .     S
C86   C87    1.43649       .     S
C87   C86    1.43649       .     S
C86   C92    1.32104   1_565     S
C92   C86    1.32104   1_545     S
C87   C88    1.33778       .     S
C88   C87    1.33778       .     S
C87   C94    1.60331       .     S
C94   C87    1.60331       .     S
C88   H89    0.94919       .     S
H89   C88    0.94919       .     S
C90   H91    0.94906       .     S
H91   C90    0.94906       .     S
C90   C92    1.40566       .     S
C92   C90    1.40566       .     S
C92   H93    0.95137       .     S
H93   C92    0.95137       .     S
C94   H95    0.98082       .     S
H95   C94    0.98082       .     S
C94   H96    0.97922       .     S
H96   C94    0.97922       .     S
C94   H97    0.98053       .     S
H97   C94    0.98053       .     S
C98   H99    0.98089       .     S
H99   C98    0.98089       .     S
C98   H100   0.97922       .     S
H100  C98    0.97922       .     S
C98   H101   0.98053       .     S
H101  C98    0.98053       .     S
C98   H102   0.68346       .     S
H102  C98    0.68346       .     S
C103  H104   0.95014       .     S
H104  C103   0.95014       .     S
C103  C105   1.38953       .     S
C105  C103   1.38953       .     S
C103  C112   1.38999       .     S
C112  C103   1.38999       .     S
C105  H106   0.95045   1_455     S
H106  C105   0.95045   1_655     S
C105  C107   1.38859   1_455     S
C107  C105   1.38859   1_655     S
C107  H108   0.94998       .     S
H108  C107   0.94998       .     S
C107  C109   1.39153   1_655     S
C109  C107   1.39153   1_455     S
C109  H110   0.94955       .     S
H110  C109   0.94955       .     S
C109  C111   1.39026       .     S
C111  C109   1.39026       .     S
C111  C112   1.39011       .     S
C112  C111   1.39011       .     S
C111  C118   1.38966       .     S
C118  C111   1.38966       .     S
C112  C113   1.38989       .     S
C113  C112   1.38989       .     S
C113  C114   1.38902       .     S
C114  C113   1.38902       .     S
C113  C120   1.36490       .     S
C120  C113   1.36490       .     S
C114  H115   0.95003       .     S
H115  C114   0.95003       .     S
C114  C116   1.39011       .     S
C116  C114   1.39011       .     S
C116  H117   0.94953       .     S
H117  C116   0.94953       .     S
C116  C118   1.39023       .     S
C118  C116   1.39023       .     S
C118  H119   0.95009       .     S
H119  C118   0.95009       .     S
C120  H121   0.98268       .     S
H121  C120   0.98268       .     S
C120  H122   0.98139   1_565     S
H122  C120   0.98139   1_545     S
C120  H123   0.97740   1_565     S
H123  C120   0.97740   1_545     S
H1    O0     0.83990       .     S
O0    H1     0.83990       .     S
C27   O0     1.27285       .     S
O0    C27    1.27285       .     S
C27   O2     1.23538       .     S
O2    C27    1.23538       .     S
C17   O3     1.24096       .     S
O3    C17    1.24096       .     S
H5    O4     0.84024       .     S
O4    H5     0.84024       .     S
C17   O4     1.26119       .     S
O4    C17    1.26119       .     S
C8    C6     1.52058       .     S
C6    C8     1.52058       .     S
C21   C6     1.37229       .     S
C6    C21    1.37229       .     S
C23   C6     1.38065       .     S
C6    C23    1.38065       .     S
C10   C7     1.46085       .     S
C7    C10    1.46085       .     S
C12   C7     1.41782   1_455     S
C7    C12    1.41782   1_655     S
C15   C7     1.38872       .     S
C7    C15    1.38872       .     S
C10   C8     1.35773       .     S
C8    C10    1.35773       .     S
C50   C8     1.46021       .     S
C8    C50    1.46021       .     S
C10   C9     1.51501       .     S
C9    C10    1.51501       .     S
C13   C9     1.38012       .     S
C9    C13    1.38012       .     S
C28   C9     1.36484       .     S
C9    C28    1.36484       .     S
C12   C11    1.42526       .     S
C11   C12    1.42526       .     S
C19   C11    1.40856       .     S
C11   C19    1.40856       .     S
C47   C11    1.46021       .     S
C11   C47    1.46021       .     S
C51   C12    1.41379   1_655     S
C12   C51    1.41379   1_455     S
H14   C13    0.94960       .     S
C13   H14    0.94960       .     S
C30   C13    1.39382       .     S
C13   C30    1.39382       .     S
H16   C15    0.95034       .     S
C15   H16    0.95034       .     S
C32   C15    1.40445   1_455     S
C15   C32    1.40445   1_655     S
C18   C17    1.49158       .     S
C17   C18    1.49158       .     S
C25   C18    1.38695       .     S
C18   C25    1.38695       .     S
C30   C18    1.37370       .     S
C18   C30    1.37370       .     S
H20   C19    0.95062       .     S
C19   H20    0.95062       .     S
C32   C19    1.37307       .     S
C19   C32    1.37307       .     S
H22   C21    0.94992       .     S
C21   H22    0.94992       .     S
C36   C21    1.38541       .     S
C21   C36    1.38541       .     S
H24   C23    0.95045       .     S
C23   H24    0.95045       .     S
C34   C23    1.37467       .     S
C23   C34    1.37467       .     S
H26   C25    0.95120       .     S
C25   H26    0.95120       .     S
C28   C25    1.41535       .     S
C25   C28    1.41535       .     S
C38   C27    1.51318       .     S
C27   C38    1.51318       .     S
H29   C28    0.94968       .     S
C28   H29    0.94968       .     S
H31   C30    0.95030       .     S
C30   H31    0.95030       .     S
H33   C32    0.95026       .     S
C32   H33    0.95026       .     S
H35   C34    0.94929       .     S
C34   H35    0.94929       .     S
C38   C34    1.37959       .     S
C34   C38    1.37959       .     S
H37   C36    0.95068       .     S
C36   H37    0.95068       .     S
C38   C36    1.37707       .     S
C36   C38    1.37707       .     S
H40   O39    0.83990       .     S
O39   H40    0.83990       .     S
C66   O39    1.27285       .     S
O39   C66    1.27285       .     S
C66   O41    1.23538       .     S
O41   C66    1.23538       .     S
C56   O42    1.24096       .     S
O42   C56    1.24096       .     S
H44   O43    0.84024       .     S
O43   H44    0.84024       .     S
C56   O43    1.26119       .     S
O43   C56    1.26119       .     S
C47   C45    1.52058       .     S
C45   C47    1.52058       .     S
C60   C45    1.37229       .     S
C45   C60    1.37229       .     S
C62   C45    1.38065       .     S
C45   C62    1.38065       .     S
C49   C46    1.46085       .     S
C46   C49    1.46085       .     S
C51   C46    1.41782   1_655     S
C46   C51    1.41782   1_455     S
C54   C46    1.38872       .     S
C46   C54    1.38872       .     S
C49   C47    1.35773       .     S
C47   C49    1.35773       .     S
C49   C48    1.51501       .     S
C48   C49    1.51501       .     S
C52   C48    1.38012       .     S
C48   C52    1.38012       .     S
C67   C48    1.36484       .     S
C48   C67    1.36484       .     S
C51   C50    1.42526       .     S
C50   C51    1.42526       .     S
C58   C50    1.40856       .     S
C50   C58    1.40856       .     S
H53   C52    0.94936       .     S
C52   H53    0.94936       .     S
C69   C52    1.39382       .     S
C52   C69    1.39382       .     S
H55   C54    0.95034       .     S
C54   H55    0.95034       .     S
C71   C54    1.40445   1_655     S
C54   C71    1.40444   1_455     S
C57   C56    1.49158       .     S
C56   C57    1.49158       .     S
C64   C57    1.38695       .     S
C57   C64    1.38695       .     S
C69   C57    1.37370       .     S
C57   C69    1.37370       .     S
H59   C58    0.95062       .     S
C58   H59    0.95062       .     S
C71   C58    1.37307       .     S
C58   C71    1.37307       .     S
H61   C60    0.94992       .     S
C60   H61    0.94992       .     S
C75   C60    1.38541       .     S
C60   C75    1.38541       .     S
H63   C62    0.95045       .     S
C62   H63    0.95045       .     S
C73   C62    1.37467       .     S
C62   C73    1.37467       .     S
H65   C64    0.95120       .     S
C64   H65    0.95120       .     S
C67   C64    1.41535       .     S
C64   C67    1.41535       .     S
C77   C66    1.51318       .     S
C66   C77    1.51318       .     S
H68   C67    0.94979       .     S
C67   H68    0.94979       .     S
H70   C69    0.95030       .     S
C69   H70    0.95030       .     S
H72   C71    0.95026       .     S
C71   H72    0.95026       .     S
H74   C73    0.94929       .     S
C73   H74    0.94929       .     S
C77   C73    1.37959       .     S
C73   C77    1.37959       .     S
H76   C75    0.95066       .     S
C75   H76    0.95066       .     S
C77   C75    1.37707       .     S
C75   C77    1.37707       .     S
C79   C78    1.43649       .     S
C78   C79    1.43649       .     S
C84   C78    1.32104   1_565     S
C78   C84    1.32104   1_545     S
C86   C78    1.49066   1_465     S
C78   C86    1.49066   1_645     S
C80   C79    1.33778       .     S
C79   C80    1.33778       .     S
C98   C79    1.60331       .     S
C79   C98    1.60331       .     S
H102  C79    0.95280       .     S
C79   H102   0.95280       .     S
H81   C80    0.94919       .     S
C80   H81    0.94919       .     S
C90   C80    1.38388   1_455     S
C80   C90    1.38388   1_655     S
H83   C82    0.94906       .     S
C82   H83    0.94906       .     S
C84   C82    1.40566       .     S
C82   C84    1.40566       .     S
C88   C82    1.38388   1_455     S
C82   C88    1.38388   1_655     S
H85   C84    0.95137       .     S
C84   H85    0.95137       .     S
C87   C86    1.43649       .     S
C86   C87    1.43649       .     S
C92   C86    1.32104   1_545     S
C86   C92    1.32104   1_565     S
C88   C87    1.33778       .     S
C87   C88    1.33778       .     S
C94   C87    1.60331       .     S
C87   C94    1.60331       .     S
H89   C88    0.94919       .     S
C88   H89    0.94919       .     S
H91   C90    0.94906       .     S
C90   H91    0.94906       .     S
C92   C90    1.40566       .     S
C90   C92    1.40566       .     S
H93   C92    0.95137       .     S
C92   H93    0.95137       .     S
H95   C94    0.98082       .     S
C94   H95    0.98082       .     S
H96   C94    0.97922       .     S
C94   H96    0.97922       .     S
H97   C94    0.98053       .     S
C94   H97    0.98053       .     S
H99   C98    0.98089       .     S
C98   H99    0.98089       .     S
H100  C98    0.97922       .     S
C98   H100   0.97922       .     S
H101  C98    0.98053       .     S
C98   H101   0.98053       .     S
H102  C98    0.68346       .     S
C98   H102   0.68346       .     S
H104  C103   0.95014       .     S
C103  H104   0.95014       .     S
C105  C103   1.38953       .     S
C103  C105   1.38953       .     S
C112  C103   1.38999       .     S
C103  C112   1.38999       .     S
H106  C105   0.95045   1_655     S
C105  H106   0.95045   1_455     S
C107  C105   1.38859   1_655     S
C105  C107   1.38859   1_455     S
H108  C107   0.94998       .     S
C107  H108   0.94998       .     S
C109  C107   1.39153   1_455     S
C107  C109   1.39153   1_655     S
H110  C109   0.94955       .     S
C109  H110   0.94955       .     S
C111  C109   1.39026       .     S
C109  C111   1.39026       .     S
C112  C111   1.39011       .     S
C111  C112   1.39011       .     S
C118  C111   1.38966       .     S
C111  C118   1.38966       .     S
C113  C112   1.38989       .     S
C112  C113   1.38989       .     S
C114  C113   1.38902       .     S
C113  C114   1.38902       .     S
C120  C113   1.36490       .     S
C113  C120   1.36490       .     S
H115  C114   0.95003       .     S
C114  H115   0.95003       .     S
C116  C114   1.39011       .     S
C114  C116   1.39011       .     S
H117  C116   0.94953       .     S
C116  H117   0.94953       .     S
C118  C116   1.39023       .     S
C116  C118   1.39023       .     S
H119  C118   0.95009       .     S
C118  H119   0.95009       .     S
H121  C120   0.98268       .     S
C120  H121   0.98268       .     S
H122  C120   0.98139   1_545     S
C120  H122   0.98139   1_565     S
H123  C120   0.97740   1_545     S
C120  H123   0.97740   1_565     S
