data_I
_chemical_name_common  '/data/user2/wty/HOF/MOFDiff/mofdiff/data/test/264-cp-py-2-dcb'
_cell_length_a  7.55110
_cell_length_b 11.44350
_cell_length_c 26.30910
_cell_angle_alpha 90.00000
_cell_angle_beta  92.90200
_cell_angle_gamma 90.00000
_space_group_name_H-M_alt      'P 1'


loop_
_space_group_symop_operation_xyz
  'x, y, z' 

loop_
_atom_site_label
_atom_site_fract_x
_atom_site_fract_y
_atom_site_fract_z
_atom_site_type_symbol
Cl0    0.73345  0.99893  0.37128    Cl
Cl1    0.42776   0.0531  0.44524    Cl
C2      0.5175   0.0181  0.34795     C
C3      0.3826     0.04  0.38025     C
C4      0.4786   0.0094  0.29619     C
H5     0.57058  0.99496  0.27368     H
C6      0.2109   0.0531  0.36109     C
H7     0.11907  0.06912  0.38347     H
C8      0.3057   0.0218  0.27726     C
H9     0.27923  0.01541  0.24168     H
C10     0.1713   0.0431  0.30944     C
H11    0.05246  0.05098  0.29626     H
O12     0.2204   0.3055  0.24679     O
O13     0.0241   0.7719   0.3296     O
H14    0.94593  0.77968  0.30596     H
O15     0.1986   0.7463  0.26413     O
O16     0.0241   0.3156  0.30712     O
H17    0.95322  0.30036  0.28237     H
C18     0.0019   0.5617  0.50234     C
C19     0.7346   0.5741  0.44461     C
C20     0.5901   0.4011  0.40518     C
C21     0.7302   0.4558   0.4402     C
C22     0.1384   0.6175  0.53322     C
C23     0.6015   0.6434  0.41299     C
C24     0.8708   0.6319  0.47593     C
C25     0.5025   0.3303  0.32151     C
H26    0.53404  0.30402  0.28893     H
C27     0.6334   0.3593  0.35801     C
H28     0.7545   0.3503  0.35064     H
C29     0.3252   0.3397  0.33245     C
C30     0.8787   0.7542  0.48056     C
H31    0.79188  0.80142  0.46311     H
C32     0.3258   0.7234   0.3476     C
C33     0.1861   0.3176  0.29176     C
C34     0.6243   0.6545  0.36147     C
H35    0.73552   0.6353  0.34835     H
C36     0.1409   0.7393  0.53681     C
H37    0.23102  0.77671   0.5574     H
C38     0.1774   0.7489  0.31022     C
C39     0.4881   0.6931  0.32872     C
H40     0.5054  0.69905   0.2933     H
C41      0.412   0.4052  0.41697     C
H42    0.38073  0.42965  0.44984     H
C43     0.0132    0.806   0.5106     C
H44    0.01784  0.88873  0.51325     H
C45     0.3063   0.7237  0.40002     C
H46    0.19892  0.74998  0.41348     H
C47     0.4449   0.6855   0.4323     C
H48    0.43326  0.68788  0.46807     H
C49     0.2806   0.3737  0.38081     C
H50    0.15968  0.37546  0.38916     H
O51     0.7796   0.6945  0.75321     O
O52     0.9759   0.2281   0.6704     O
H53    0.05407  0.22032  0.69404     H
O54     0.8014   0.2537  0.73587     O
O55     0.9759   0.6844  0.69288     O
H56    0.04678  0.69964  0.71763     H
C57     0.9981   0.4383  0.49766     C
C58     0.2654   0.4259  0.55539     C
C59     0.4099   0.5989  0.59482     C
C60     0.2698   0.5442   0.5598     C
C61     0.8616   0.3825  0.46678     C
C62     0.3985   0.3566  0.58701     C
C63     0.1292   0.3681  0.52407     C
C64     0.4975   0.6697  0.67849     C
H65    0.46596  0.69598  0.71107     H
C66     0.3666   0.6407  0.64199     C
H67     0.2455   0.6497  0.64936     H
C68     0.6748   0.6603  0.66755     C
C69     0.1213   0.2458  0.51944     C
H70    0.20812  0.19858  0.53689     H
C71     0.6742   0.2766   0.6524     C
C72     0.8139   0.6824  0.70824     C
C73     0.3757   0.3455  0.63853     C
H74    0.26448   0.3647  0.65165     H
C75     0.8591   0.2607  0.46319     C
H76    0.76898  0.22329   0.4426     H
C77     0.8226   0.2511  0.68978     C
C78     0.5119   0.3069  0.67128     C
H79     0.4946  0.30095   0.7067     H
C80      0.588   0.5948  0.58303     C
H81    0.61927  0.57035  0.55016     H
C82     0.9868    0.194   0.4894     C
H83    0.98216  0.11127  0.48675     H
C84     0.6937   0.2763  0.59998     C
H85    0.80108  0.25002  0.58652     H
C86     0.5551   0.3145   0.5677     C
H87    0.56674  0.31212  0.53193     H
C88     0.7194   0.6263  0.61919     C
H89    0.84032  0.62453  0.61084     H
loop_
_geom_bond_atom_site_label_1
_geom_bond_atom_site_label_2
_geom_bond_distance
_geom_bond_site_symmetry_2
_ccdc_geom_bond_type
Cl0   C2     1.72701   1_565     S
C2    Cl0    1.72701   1_545     S
Cl1   C3     1.73298       .     S
C3    Cl1    1.73298       .     S
C2    C3     1.38211       .     S
C3    C2     1.38211       .     S
C2    C4     1.38206       .     S
C4    C2     1.38206       .     S
C3    C6     1.37527       .     S
C6    C3     1.37527       .     S
C4    H5     0.94978   1_545     S
H5    C4     0.94978   1_565     S
C4    C8     1.38090       .     S
C8    C4     1.38090       .     S
C6    H7     0.94998       .     S
H7    C6     0.94998       .     S
C6    C10    1.38126       .     S
C10   C6     1.38126       .     S
C8    H9     0.95005       .     S
H9    C8     0.95005       .     S
C8    C10    1.37592       .     S
C10   C8     1.37592       .     S
C10   H11    0.94981       .     S
H11   C10    0.94981       .     S
O12   C33    1.23169       .     S
C33   O12    1.23169       .     S
O13   H14    0.84023   1_455     S
H14   O13    0.84023   1_655     S
O13   C38    1.31492       .     S
C38   O13    1.31492       .     S
O15   C38    1.23148       .     S
C38   O15    1.23148       .     S
O16   H17    0.83999   1_455     S
H17   O16    0.83999   1_655     S
O16   C33    1.30778       .     S
C33   O16    1.30778       .     S
C18   C22    1.43017       .     S
C22   C18    1.43017       .     S
C18   C24    1.42775   1_455     S
C24   C18    1.42775   1_655     S
C18   C57    1.41765   1_455     S
C57   C18    1.41765   1_655     S
C19   C21    1.35899       .     S
C21   C19    1.35899       .     S
C19   C23    1.49881       .     S
C23   C19    1.49881       .     S
C19   C24    1.44513       .     S
C24   C19    1.44513       .     S
C20   C21    1.50372       .     S
C21   C20    1.50372       .     S
C20   C27    1.38451       .     S
C27   C20    1.38451       .     S
C20   C41    1.39617       .     S
C41   C20    1.39617       .     S
C21   C61    1.45150       .     S
C61   C21    1.45150       .     S
C22   C36    1.39708       .     S
C36   C22    1.39708       .     S
C22   C60    1.45150       .     S
C60   C22    1.45150       .     S
C23   C34    1.38081       .     S
C34   C23    1.38081       .     S
C23   C47    1.39619       .     S
C47   C23    1.39619       .     S
C24   C30    1.40583       .     S
C30   C24    1.40583       .     S
C25   H26    0.95002       .     S
H26   C25    0.95002       .     S
C25   C27    1.38318       .     S
C27   C25    1.38318       .     S
C25   C29    1.38775       .     S
C29   C25    1.38775       .     S
C27   H28    0.94992       .     S
H28   C27    0.94992       .     S
C29   C33    1.48302       .     S
C33   C29    1.48302       .     S
C29   C49    1.38815       .     S
C49   C29    1.38815       .     S
C30   H31    0.94978       .     S
H31   C30    0.94978       .     S
C30   C43    1.38788   1_655     S
C43   C30    1.38788   1_455     S
C32   C38    1.48203       .     S
C38   C32    1.48203       .     S
C32   C39    1.38944       .     S
C39   C32    1.38944       .     S
C32   C45    1.39436       .     S
C45   C32    1.39436       .     S
C34   H35    0.94979       .     S
H35   C34    0.94979       .     S
C34   C39    1.38040       .     S
C39   C34    1.38040       .     S
C36   H37    0.94999       .     S
H37   C36    0.94999       .     S
C36   C43    1.38585       .     S
C43   C36    1.38585       .     S
C39   H40    0.94995       .     S
H40   C39    0.94995       .     S
C41   H42    0.95003       .     S
H42   C41    0.95003       .     S
C41   C49    1.38704       .     S
C49   C41    1.38704       .     S
C43   H44    0.94980       .     S
H44   C43    0.94980       .     S
C45   H46    0.94993       .     S
H46   C45    0.94993       .     S
C45   C47    1.38480       .     S
C47   C45    1.38480       .     S
C47   H48    0.94998       .     S
H48   C47    0.94998       .     S
C49   H50    0.95010       .     S
H50   C49    0.95010       .     S
O51   C72    1.23169       .     S
C72   O51    1.23169       .     S
O52   H53    0.84023   1_655     S
H53   O52    0.84023   1_455     S
O52   C77    1.31492       .     S
C77   O52    1.31492       .     S
O54   C77    1.23148       .     S
C77   O54    1.23148       .     S
O55   H56    0.83999   1_655     S
H56   O55    0.83999   1_455     S
O55   C72    1.30778       .     S
C72   O55    1.30778       .     S
C57   C61    1.43017       .     S
C61   C57    1.43017       .     S
C57   C63    1.42775   1_655     S
C63   C57    1.42775   1_455     S
C58   C60    1.35899       .     S
C60   C58    1.35899       .     S
C58   C62    1.49881       .     S
C62   C58    1.49881       .     S
C58   C63    1.44513       .     S
C63   C58    1.44513       .     S
C59   C60    1.50372       .     S
C60   C59    1.50372       .     S
C59   C66    1.38451       .     S
C66   C59    1.38451       .     S
C59   C80    1.39617       .     S
C80   C59    1.39617       .     S
C61   C75    1.39708       .     S
C75   C61    1.39708       .     S
C62   C73    1.38081       .     S
C73   C62    1.38081       .     S
C62   C86    1.39619       .     S
C86   C62    1.39619       .     S
C63   C69    1.40584       .     S
C69   C63    1.40584       .     S
C64   H65    0.95002       .     S
H65   C64    0.95002       .     S
C64   C66    1.38318       .     S
C66   C64    1.38318       .     S
C64   C68    1.38775       .     S
C68   C64    1.38775       .     S
C66   H67    0.94992       .     S
H67   C66    0.94992       .     S
C68   C72    1.48302       .     S
C72   C68    1.48302       .     S
C68   C88    1.38815       .     S
C88   C68    1.38815       .     S
C69   H70    0.94978       .     S
H70   C69    0.94978       .     S
C69   C82    1.38788   1_455     S
C82   C69    1.38788   1_655     S
C71   C77    1.48203       .     S
C77   C71    1.48203       .     S
C71   C78    1.38944       .     S
C78   C71    1.38944       .     S
C71   C84    1.39436       .     S
C84   C71    1.39436       .     S
C73   H74    0.94979       .     S
H74   C73    0.94979       .     S
C73   C78    1.38040       .     S
C78   C73    1.38040       .     S
C75   H76    0.94999       .     S
H76   C75    0.94999       .     S
C75   C82    1.38585       .     S
C82   C75    1.38585       .     S
C78   H79    0.94995       .     S
H79   C78    0.94995       .     S
C80   H81    0.95003       .     S
H81   C80    0.95003       .     S
C80   C88    1.38704       .     S
C88   C80    1.38704       .     S
C82   H83    0.94980       .     S
H83   C82    0.94980       .     S
C84   H85    0.94993       .     S
H85   C84    0.94993       .     S
C84   C86    1.38480       .     S
C86   C84    1.38480       .     S
C86   H87    0.94998       .     S
H87   C86    0.94998       .     S
C88   H89    0.95010       .     S
H89   C88    0.95010       .     S
C2    Cl0    1.72701   1_545     S
Cl0   C2     1.72701   1_565     S
C3    Cl1    1.73298       .     S
Cl1   C3     1.73298       .     S
C3    C2     1.38211       .     S
C2    C3     1.38211       .     S
C4    C2     1.38206       .     S
C2    C4     1.38206       .     S
C6    C3     1.37527       .     S
C3    C6     1.37527       .     S
H5    C4     0.94978   1_565     S
C4    H5     0.94978   1_545     S
C8    C4     1.38090       .     S
C4    C8     1.38090       .     S
H7    C6     0.94998       .     S
C6    H7     0.94998       .     S
C10   C6     1.38126       .     S
C6    C10    1.38126       .     S
H9    C8     0.95005       .     S
C8    H9     0.95005       .     S
C10   C8     1.37592       .     S
C8    C10    1.37592       .     S
H11   C10    0.94981       .     S
C10   H11    0.94981       .     S
C33   O12    1.23169       .     S
O12   C33    1.23169       .     S
H14   O13    0.84023   1_655     S
O13   H14    0.84023   1_455     S
C38   O13    1.31492       .     S
O13   C38    1.31492       .     S
C38   O15    1.23148       .     S
O15   C38    1.23148       .     S
H17   O16    0.83999   1_655     S
O16   H17    0.83999   1_455     S
C33   O16    1.30778       .     S
O16   C33    1.30778       .     S
C22   C18    1.43017       .     S
C18   C22    1.43017       .     S
C24   C18    1.42775   1_655     S
C18   C24    1.42775   1_455     S
C57   C18    1.41765   1_655     S
C18   C57    1.41765   1_455     S
C21   C19    1.35899       .     S
C19   C21    1.35899       .     S
C23   C19    1.49881       .     S
C19   C23    1.49881       .     S
C24   C19    1.44513       .     S
C19   C24    1.44513       .     S
C21   C20    1.50372       .     S
C20   C21    1.50372       .     S
C27   C20    1.38451       .     S
C20   C27    1.38451       .     S
C41   C20    1.39617       .     S
C20   C41    1.39617       .     S
C61   C21    1.45150       .     S
C21   C61    1.45150       .     S
C36   C22    1.39708       .     S
C22   C36    1.39708       .     S
C60   C22    1.45150       .     S
C22   C60    1.45150       .     S
C34   C23    1.38081       .     S
C23   C34    1.38081       .     S
C47   C23    1.39619       .     S
C23   C47    1.39619       .     S
C30   C24    1.40583       .     S
C24   C30    1.40583       .     S
H26   C25    0.95002       .     S
C25   H26    0.95002       .     S
C27   C25    1.38318       .     S
C25   C27    1.38318       .     S
C29   C25    1.38775       .     S
C25   C29    1.38775       .     S
H28   C27    0.94992       .     S
C27   H28    0.94992       .     S
C33   C29    1.48302       .     S
C29   C33    1.48302       .     S
C49   C29    1.38815       .     S
C29   C49    1.38815       .     S
H31   C30    0.94978       .     S
C30   H31    0.94978       .     S
C43   C30    1.38788   1_455     S
C30   C43    1.38788   1_655     S
C38   C32    1.48203       .     S
C32   C38    1.48203       .     S
C39   C32    1.38944       .     S
C32   C39    1.38944       .     S
C45   C32    1.39436       .     S
C32   C45    1.39436       .     S
H35   C34    0.94979       .     S
C34   H35    0.94979       .     S
C39   C34    1.38040       .     S
C34   C39    1.38040       .     S
H37   C36    0.94999       .     S
C36   H37    0.94999       .     S
C43   C36    1.38585       .     S
C36   C43    1.38585       .     S
H40   C39    0.94995       .     S
C39   H40    0.94995       .     S
H42   C41    0.95003       .     S
C41   H42    0.95003       .     S
C49   C41    1.38704       .     S
C41   C49    1.38704       .     S
H44   C43    0.94980       .     S
C43   H44    0.94980       .     S
H46   C45    0.94993       .     S
C45   H46    0.94993       .     S
C47   C45    1.38480       .     S
C45   C47    1.38480       .     S
H48   C47    0.94998       .     S
C47   H48    0.94998       .     S
H50   C49    0.95010       .     S
C49   H50    0.95010       .     S
C72   O51    1.23169       .     S
O51   C72    1.23169       .     S
H53   O52    0.84023   1_455     S
O52   H53    0.84023   1_655     S
C77   O52    1.31492       .     S
O52   C77    1.31492       .     S
C77   O54    1.23148       .     S
O54   C77    1.23148       .     S
H56   O55    0.83999   1_455     S
O55   H56    0.83999   1_655     S
C72   O55    1.30778       .     S
O55   C72    1.30778       .     S
C61   C57    1.43017       .     S
C57   C61    1.43017       .     S
C63   C57    1.42775   1_455     S
C57   C63    1.42775   1_655     S
C60   C58    1.35899       .     S
C58   C60    1.35899       .     S
C62   C58    1.49881       .     S
C58   C62    1.49881       .     S
C63   C58    1.44513       .     S
C58   C63    1.44513       .     S
C60   C59    1.50372       .     S
C59   C60    1.50372       .     S
C66   C59    1.38451       .     S
C59   C66    1.38451       .     S
C80   C59    1.39617       .     S
C59   C80    1.39617       .     S
C75   C61    1.39708       .     S
C61   C75    1.39708       .     S
C73   C62    1.38081       .     S
C62   C73    1.38081       .     S
C86   C62    1.39619       .     S
C62   C86    1.39619       .     S
C69   C63    1.40584       .     S
C63   C69    1.40584       .     S
H65   C64    0.95002       .     S
C64   H65    0.95002       .     S
C66   C64    1.38318       .     S
C64   C66    1.38318       .     S
C68   C64    1.38775       .     S
C64   C68    1.38775       .     S
H67   C66    0.94992       .     S
C66   H67    0.94992       .     S
C72   C68    1.48302       .     S
C68   C72    1.48302       .     S
C88   C68    1.38815       .     S
C68   C88    1.38815       .     S
H70   C69    0.94978       .     S
C69   H70    0.94978       .     S
C82   C69    1.38788   1_655     S
C69   C82    1.38788   1_455     S
C77   C71    1.48203       .     S
C71   C77    1.48203       .     S
C78   C71    1.38944       .     S
C71   C78    1.38944       .     S
C84   C71    1.39436       .     S
C71   C84    1.39436       .     S
H74   C73    0.94979       .     S
C73   H74    0.94979       .     S
C78   C73    1.38040       .     S
C73   C78    1.38040       .     S
H76   C75    0.94999       .     S
C75   H76    0.94999       .     S
C82   C75    1.38585       .     S
C75   C82    1.38585       .     S
H79   C78    0.94995       .     S
C78   H79    0.94995       .     S
H81   C80    0.95003       .     S
C80   H81    0.95003       .     S
C88   C80    1.38704       .     S
C80   C88    1.38704       .     S
H83   C82    0.94980       .     S
C82   H83    0.94980       .     S
H85   C84    0.94993       .     S
C84   H85    0.94993       .     S
C86   C84    1.38480       .     S
C84   C86    1.38480       .     S
H87   C86    0.94998       .     S
C86   H87    0.94998       .     S
H89   C88    0.95010       .     S
C88   H89    0.95010       .     S
