data_I
_chemical_name_common  '/data/user2/wty/HOF/MOFDiff/mofdiff/data/test/269-m'
_cell_length_a  9.60270
_cell_length_b  9.94300
_cell_length_c 14.28300
_cell_angle_alpha 95.74700
_cell_angle_beta  98.45000
_cell_angle_gamma 104.46600
_space_group_name_H-M_alt      'P 1'


loop_
_space_group_symop_operation_xyz
  'x, y, z' 

loop_
_atom_site_label
_atom_site_fract_x
_atom_site_fract_y
_atom_site_fract_z
_atom_site_type_symbol
F0      0.0144  0.53645  0.10759     F
F1     0.92302  0.17334  0.01756     F
O2     0.84407    0.846   0.4039     O
O3     0.68841  0.70425  0.47662     O
H4       0.763    0.668   0.4897     H
O5      0.1196  0.91372  0.38434     O
H6       0.028   0.8744   0.3979     H
O7     0.17408    0.737  0.45308     O
C8     0.60583   0.8761  0.39873     C
C9        0.64   0.9974  0.35609     C
H10    0.73588  0.03103   0.3432     H
C11    0.53605    0.071  0.33178     C
C12     0.3961   0.0178  0.35111     C
H13    0.32375  0.06584  0.33545     H
C14    0.35973   0.8953  0.39304     C
C15     0.4652   0.8248  0.41767     C
H16    0.44152  0.74242  0.44709     H
C17     0.7247   0.8077  0.42677     C
C18     0.2097   0.8392  0.41374     C
C19    0.57473   0.2026  0.28818     C
C20      0.664   0.2154  0.21884     C
H21    0.69765  0.13763  0.19743     H
C22     0.7045   0.3397  0.18048     C
H23    0.76697  0.34625  0.13437     H
C24     0.6542   0.4554  0.20922     C
C25     0.5634   0.4415  0.27787     C
H26    0.52753  0.51827  0.29825     H
C27     0.5249   0.3184  0.31665     C
H28     0.4635   0.3123  0.36339     H
C29     0.7036   0.5882   0.1699     C
H30    0.80417  0.61521   0.1652     H
C31     0.6251    0.676  0.13988     C
C32     0.7014   0.8104  0.10921     C
C33     0.8425   0.8858  0.15609     C
H34    0.88752  0.85417   0.2102     H
C35     0.9173    0.007  0.12401     C
H36    0.01342  0.05679   0.1552     H
C37     0.8504   0.0528  0.04729     C
C38     0.7118   0.9835  0.99971     C
H39    0.66773  0.01737  0.94629     H
C40     0.6376   0.8628  0.03146     C
H41    0.54132  0.81478   0.9996     H
C42     0.4623   0.6401  0.13031     C
C43     0.3927   0.7386  0.16226     C
H44     0.4493  0.83074  0.18936     H
C45     0.2425   0.7043   0.1551     C
H46    0.19541  0.77124  0.17787     H
C47     0.1626   0.5705  0.11405     C
C48     0.2256   0.4708  0.07966     C
H49    0.16763  0.37988  0.05104     H
C50     0.3763   0.5066  0.08786     C
H51    0.42205  0.43921  0.06418     H
loop_
_geom_bond_atom_site_label_1
_geom_bond_atom_site_label_2
_geom_bond_distance
_geom_bond_site_symmetry_2
_ccdc_geom_bond_type
H6    O2     1.73401   1_455     S
O2    H6     1.73401   1_655     S
F0    C47    1.36486       .     S
C47   F0     1.36486       .     S
F1    C37    1.36911       .     S
C37   F1     1.36911       .     S
O2    C17    1.21759       .     S
C17   O2     1.21759       .     S
O3    H4     0.88374       .     S
H4    O3     0.88374       .     S
O3    C17    1.31413       .     S
C17   O3     1.31413       .     S
O5    H6     0.92601       .     S
H6    O5     0.92601       .     S
O5    C18    1.32278       .     S
C18   O5     1.32278       .     S
O7    C18    1.20934       .     S
C18   O7     1.20934       .     S
C8    C9     1.39332       .     S
C9    C8     1.39332       .     S
C8    C15    1.39566       .     S
C15   C8     1.39566       .     S
C8    C17    1.49464       .     S
C17   C8     1.49464       .     S
C9    H10    0.94960   1_565     S
H10   C9     0.94960   1_545     S
C9    C11    1.40232   1_565     S
C11   C9     1.40232   1_545     S
C11   C12    1.39471       .     S
C12   C11    1.39471       .     S
C11   C19    1.49207       .     S
C19   C11    1.49207       .     S
C12   H13    0.94995       .     S
H13   C12    0.94995       .     S
C12   C14    1.39973   1_545     S
C14   C12    1.39973   1_565     S
C14   C15    1.39293       .     S
C15   C14    1.39293       .     S
C14   C18    1.49361       .     S
C18   C14    1.49361       .     S
C15   H16    0.95035       .     S
H16   C15    0.95035       .     S
C19   C20    1.39719       .     S
C20   C19    1.39719       .     S
C19   C27    1.39954       .     S
C27   C19    1.39954       .     S
C20   H21    0.94994       .     S
H21   C20    0.94994       .     S
C20   C22    1.39177       .     S
C22   C20    1.39177       .     S
C22   H23    0.95027       .     S
H23   C22    0.95027       .     S
C22   C24    1.40234       .     S
C24   C22    1.40234       .     S
C24   C25    1.39964       .     S
C25   C24    1.39964       .     S
C24   C29    1.48251       .     S
C29   C24    1.48251       .     S
C25   H26    0.94993       .     S
H26   C25    0.94993       .     S
C25   C27    1.38257       .     S
C27   C25    1.38257       .     S
C27   H28    0.95022       .     S
H28   C27    0.95022       .     S
C29   H30    0.94993       .     S
H30   C29    0.94993       .     S
C29   C31    1.35017       .     S
C31   C29    1.35017       .     S
C31   C32    1.49563       .     S
C32   C31    1.49563       .     S
C31   C42    1.49623       .     S
C42   C31    1.49623       .     S
C32   C33    1.40413       .     S
C33   C32    1.40413       .     S
C32   C40    1.39836       .     S
C40   C32    1.39836       .     S
C33   H34    0.94948       .     S
H34   C33    0.94948       .     S
C33   C35    1.39749   1_565     S
C35   C33    1.39749   1_545     S
C35   H36    0.94983   1_655     S
H36   C35    0.94983   1_455     S
C35   C37    1.36384       .     S
C37   C35    1.36384       .     S
C37   C38    1.37485   1_544     S
C38   C37    1.37486   1_566     S
C38   H39    0.94997   1_565     S
H39   C38    0.94997   1_545     S
C38   C40    1.38937   1_556     S
C40   C38    1.38937   1_554     S
C40   H41    0.94980   1_554     S
H41   C40    0.94980   1_556     S
C42   C43    1.39330       .     S
C43   C42    1.39330       .     S
C42   C50    1.39842       .     S
C50   C42    1.39842       .     S
C43   H44    0.95023       .     S
H44   C43    0.95023       .     S
C43   C45    1.38238       .     S
C45   C43    1.38238       .     S
C45   H46    0.95052       .     S
H46   C45    0.95052       .     S
C45   C47    1.37984       .     S
C47   C45    1.37984       .     S
C47   C48    1.37092       .     S
C48   C47    1.37092       .     S
C48   H49    0.94969       .     S
H49   C48    0.94969       .     S
C48   C50    1.38531       .     S
C50   C48    1.38531       .     S
C50   H51    0.94960       .     S
H51   C50    0.94960       .     S
O2    H6     1.73401   1_655     S
H6    O2     1.73401   1_455     S
C47   F0     1.36486       .     S
F0    C47    1.36486       .     S
C37   F1     1.36911       .     S
F1    C37    1.36911       .     S
C17   O2     1.21759       .     S
O2    C17    1.21759       .     S
H4    O3     0.88374       .     S
O3    H4     0.88374       .     S
C17   O3     1.31413       .     S
O3    C17    1.31413       .     S
H6    O5     0.92601       .     S
O5    H6     0.92601       .     S
C18   O5     1.32278       .     S
O5    C18    1.32278       .     S
C18   O7     1.20934       .     S
O7    C18    1.20934       .     S
C9    C8     1.39332       .     S
C8    C9     1.39332       .     S
C15   C8     1.39566       .     S
C8    C15    1.39566       .     S
C17   C8     1.49464       .     S
C8    C17    1.49464       .     S
H10   C9     0.94960   1_545     S
C9    H10    0.94960   1_565     S
C11   C9     1.40232   1_545     S
C9    C11    1.40232   1_565     S
C12   C11    1.39471       .     S
C11   C12    1.39471       .     S
C19   C11    1.49207       .     S
C11   C19    1.49207       .     S
H13   C12    0.94995       .     S
C12   H13    0.94995       .     S
C14   C12    1.39973   1_565     S
C12   C14    1.39973   1_545     S
C15   C14    1.39293       .     S
C14   C15    1.39293       .     S
C18   C14    1.49361       .     S
C14   C18    1.49361       .     S
H16   C15    0.95035       .     S
C15   H16    0.95035       .     S
C20   C19    1.39719       .     S
C19   C20    1.39719       .     S
C27   C19    1.39954       .     S
C19   C27    1.39954       .     S
H21   C20    0.94994       .     S
C20   H21    0.94994       .     S
C22   C20    1.39177       .     S
C20   C22    1.39177       .     S
H23   C22    0.95027       .     S
C22   H23    0.95027       .     S
C24   C22    1.40234       .     S
C22   C24    1.40234       .     S
C25   C24    1.39964       .     S
C24   C25    1.39964       .     S
C29   C24    1.48251       .     S
C24   C29    1.48251       .     S
H26   C25    0.94993       .     S
C25   H26    0.94993       .     S
C27   C25    1.38257       .     S
C25   C27    1.38257       .     S
H28   C27    0.95022       .     S
C27   H28    0.95022       .     S
H30   C29    0.94993       .     S
C29   H30    0.94993       .     S
C31   C29    1.35017       .     S
C29   C31    1.35017       .     S
C32   C31    1.49563       .     S
C31   C32    1.49563       .     S
C42   C31    1.49623       .     S
C31   C42    1.49623       .     S
C33   C32    1.40413       .     S
C32   C33    1.40413       .     S
C40   C32    1.39836       .     S
C32   C40    1.39836       .     S
H34   C33    0.94948       .     S
C33   H34    0.94948       .     S
C35   C33    1.39749   1_545     S
C33   C35    1.39749   1_565     S
H36   C35    0.94983   1_455     S
C35   H36    0.94983   1_655     S
C37   C35    1.36384       .     S
C35   C37    1.36384       .     S
C38   C37    1.37486   1_566     S
C37   C38    1.37485   1_544     S
H39   C38    0.94997   1_545     S
C38   H39    0.94997   1_565     S
C40   C38    1.38937   1_554     S
C38   C40    1.38937   1_556     S
H41   C40    0.94980   1_556     S
C40   H41    0.94980   1_554     S
C43   C42    1.39330       .     S
C42   C43    1.39330       .     S
C50   C42    1.39842       .     S
C42   C50    1.39842       .     S
H44   C43    0.95023       .     S
C43   H44    0.95023       .     S
C45   C43    1.38238       .     S
C43   C45    1.38238       .     S
H46   C45    0.95052       .     S
C45   H46    0.95052       .     S
C47   C45    1.37984       .     S
C45   C47    1.37984       .     S
C48   C47    1.37092       .     S
C47   C48    1.37092       .     S
H49   C48    0.94969       .     S
C48   H49    0.94969       .     S
C50   C48    1.38531       .     S
C48   C50    1.38531       .     S
H51   C50    0.94960       .     S
C50   H51    0.94960       .     S
