data_I
_chemical_name_common  '/data/user2/wty/HOF/MOFDiff/mofdiff/data/test/270-fju-57'
_cell_length_a  8.95670
_cell_length_b 12.28260
_cell_length_c 15.44740
_cell_angle_alpha 72.69700
_cell_angle_beta  86.05500
_cell_angle_gamma 88.05400
_space_group_name_H-M_alt      'P 1'


loop_
_space_group_symop_operation_xyz
  'x, y, z' 

loop_
_atom_site_label
_atom_site_fract_x
_atom_site_fract_y
_atom_site_fract_z
_atom_site_type_symbol
O0      0.6558   0.7089   0.1315     O
H1     0.73425  0.73779  0.14608     H
H2     0.67147  0.71725  0.07371     H
O3      0.6967   0.7215   0.9525     O
H4     0.68718  0.66063  0.93581     H
H5       0.783    0.733    0.945     H
O6      0.4781   0.8927   0.1471     O
H7      0.4858  0.88522  0.20242     H
C8      0.3679   0.9808   0.1113     C
H9     0.39675  0.02078  0.04764     H
H10    0.36271  0.03518  0.14674     H
H11    0.26981  0.94612   0.1152     H
O12     0.4999   0.3339  0.35333     O
O13     0.1487    0.403   0.5813     O
O14     0.5911   0.8669   0.3153     O
N15     0.0861   0.5828   0.5863     N
H16    0.10222  0.65525  0.55769     H
N17      0.571   0.8283   0.4693     N
H18    0.52911  0.78121  0.51897     H
N19     0.6061   0.4762   0.2385     N
H20    0.60821  0.55048  0.21312     H
N21     0.9212   0.1688   0.5231     N
N22     0.6822   0.5254   0.8878     N
C23     0.1658   0.5066   0.5532     C
C24     0.5212    0.437   0.3164     C
C25     0.6553   0.9179   0.4811     C
C26     0.3402   0.4858   0.4277     C
H27    0.29855  0.41267  0.43794     H
C28     0.7759    0.534   0.8125     C
N29     0.9911   0.2241   0.0706     N
C30     0.2851   0.5555   0.4795     C
C31     0.8318   0.0853   0.5119     C
C32     0.4669   0.6977    0.401     C
C33     0.9802   0.5594   0.6613     C
C34     0.5171   0.6296    0.347     C
H35    0.59346  0.65639  0.30032     H
C36     0.4563   0.5224   0.3608     C
C37     0.3516   0.6604   0.4672     C
H38    0.31784  0.70672  0.50435     H
C39     0.6982   0.9073   0.5671     C
H40    0.66632  0.84325  0.61599     H
C41     0.9417   0.4516   0.7138     C
H42    0.98405  0.38687   0.6991     H
C43     0.9134    0.656   0.6811     C
H44      0.937  0.73028  0.64277     H
C45     0.8387   0.4372   0.7901     C
C46     0.7884   0.9897   0.5843     C
C47     0.5476   0.8069     0.39     C
C48     0.6918    0.408   0.1944     C
C49     0.6571   0.2996   0.1974     C
H50    0.56709  0.26663  0.22899     H
C51     0.8151   0.6433   0.7551     C
H52    0.77256  0.70912    0.768     H
C53     0.7533    0.236   0.1543     C
C54     0.6449   0.4218    0.939     C
H55    0.58082  0.41435  0.99196     H
C56     0.8247   0.4583   0.1438     C
H57    0.84663  0.53525  0.13852     H
C58      0.967   0.1564   0.6046     C
H59    0.02983  0.21303  0.61248     H
C60     0.7923   0.3282   0.8466     C
H61     0.8286  0.26058  0.83399     H
C62     0.6968   0.0155     0.41     C
H63    0.66501  0.02481  0.35079     H
C64     0.7823   0.0968   0.4251     C
H65    0.80889  0.16239  0.37621     H
C66     0.8895   0.2833   0.1091     C
C67     0.9195   0.3977   0.1034     C
H68    0.00778  0.43245  0.07062     H
C69     0.6958   0.3228   0.9185     C
H70    0.66174  0.25061  0.95596     H
C71      0.722   0.1239   0.1541     C
H72    0.63159  0.08852    0.183     H
C73     0.8372   0.9825   0.6707     C
H74    0.80688  0.92089  0.72201     H
C75     0.9281   0.0643     0.68     C
H76     0.9648  0.05882  0.73744     H
C77     0.8223   0.0668   0.1122     C
H78     0.8007  0.99255  0.10996     H
C79      0.957   0.1187   0.0727     C
H80    0.02759   0.0767  0.04618     H
O81     0.8712   0.7993   0.2075     O
H82    0.87191  0.87128  0.19721     H
H83     0.9564  0.76627  0.21389     H
loop_
_geom_bond_atom_site_label_1
_geom_bond_atom_site_label_2
_geom_bond_distance
_geom_bond_site_symmetry_2
_ccdc_geom_bond_type
H1    O81    1.90395       .     S
O81   H1     1.90395       .     S
H2    O3     1.85581   1_554     S
O3    H2     1.85581   1_556     S
H4    N22    2.01325       .     S
N22   H4     2.01325       .     S
H7    O14    1.98976       .     S
O14   H7     1.98976       .     S
H20   O0     2.02004       .     S
O0    H20    2.02004       .     S
O0    H1     0.86983       .     S
H1    O0     0.86983       .     S
O0    H2     0.86972       .     S
H2    O0     0.86972       .     S
O3    H4     0.86875       .     S
H4    O3     0.86875       .     S
O3    H5     0.78499       .     S
H5    O3     0.78499       .     S
O6    H7     0.83930       .     S
H7    O6     0.83930       .     S
O6    C8     1.44830       .     S
C8    O6     1.44830       .     S
C8    H9     0.98048   1_565     S
H9    C8     0.98048   1_545     S
C8    H10    0.97974   1_565     S
H10   C8     0.97974   1_545     S
C8    H11    0.97970       .     S
H11   C8     0.97970       .     S
O12   C24    1.23982       .     S
C24   O12    1.23982       .     S
O13   C23    1.22744       .     S
C23   O13    1.22744       .     S
O14   C47    1.21582       .     S
C47   O14    1.21582       .     S
N15   H16    0.87980       .     S
H16   N15    0.87980       .     S
N15   C23    1.35501       .     S
C23   N15    1.35501       .     S
N15   C33    1.41201   1_455     S
C33   N15    1.41201   1_655     S
N17   H18    0.88043       .     S
H18   N17    0.88043       .     S
N17   C25    1.41745       .     S
C25   N17    1.41745       .     S
N17   C47    1.35801       .     S
C47   N17    1.35801       .     S
N19   H20    0.87967       .     S
H20   N19    0.87967       .     S
N19   C24    1.34627       .     S
C24   N19    1.34627       .     S
N19   C48    1.40670       .     S
C48   N19    1.40670       .     S
N21   C31    1.37961       .     S
C31   N21    1.37961       .     S
N21   C58    1.31500       .     S
C58   N21    1.31500       .     S
N22   C28    1.36642       .     S
C28   N22    1.36642       .     S
N22   C54    1.32295       .     S
C54   N22    1.32295       .     S
C23   C30    1.50601       .     S
C30   C23    1.50601       .     S
C24   C36    1.49675       .     S
C36   C24    1.49675       .     S
C25   C39    1.37601       .     S
C39   C25    1.37601       .     S
C25   C62    1.40443   1_565     S
C62   C25    1.40443   1_545     S
C26   H27    0.94927       .     S
H27   C26    0.94927       .     S
C26   C30    1.39327       .     S
C30   C26    1.39327       .     S
C26   C36    1.39962       .     S
C36   C26    1.39962       .     S
C28   C45    1.42206       .     S
C45   C28    1.42206       .     S
C28   C51    1.41168       .     S
C51   C28    1.41168       .     S
N29   C66    1.35954       .     S
C66   N29    1.35954       .     S
N29   C79    1.33071       .     S
C79   N29    1.33071       .     S
C30   C37    1.39351       .     S
C37   C30    1.39351       .     S
C31   C46    1.40381   1_545     S
C46   C31    1.40381   1_565     S
C31   C64    1.40685       .     S
C64   C31    1.40685       .     S
C32   C34    1.39123       .     S
C34   C32    1.39123       .     S
C32   C37    1.38934       .     S
C37   C32    1.38934       .     S
C32   C47    1.50455       .     S
C47   C32    1.50455       .     S
C33   C41    1.37242       .     S
C41   C33    1.37242       .     S
C33   C43    1.41484       .     S
C43   C33    1.41484       .     S
C34   H35    0.94989       .     S
H35   C34    0.94989       .     S
C34   C36    1.39336       .     S
C36   C34    1.39336       .     S
C37   H38    0.95031       .     S
H38   C37    0.95031       .     S
C39   H40    0.95024       .     S
H40   C39    0.95024       .     S
C39   C46    1.41161       .     S
C46   C39    1.41161       .     S
C41   H42    0.95006       .     S
H42   C41    0.95006       .     S
C41   C45    1.41739       .     S
C45   C41    1.41739       .     S
C43   H44    0.94983       .     S
H44   C43    0.94983       .     S
C43   C51    1.36784       .     S
C51   C43    1.36784       .     S
C45   C60    1.42115       .     S
C60   C45    1.42115       .     S
C46   C73    1.40983       .     S
C73   C46    1.40983       .     S
C48   C49    1.36414       .     S
C49   C48    1.36414       .     S
C48   C56    1.42977       .     S
C56   C48    1.42977       .     S
C49   H50    0.95003       .     S
H50   C49    0.95003       .     S
C49   C53    1.40735       .     S
C53   C49    1.40735       .     S
C51   H52    0.95022       .     S
H52   C51    0.95022       .     S
C53   C66    1.41522       .     S
C66   C53    1.41522       .     S
C53   C71    1.41537       .     S
C71   C53    1.41537       .     S
C54   H55    0.94947       .     S
H55   C54    0.94947       .     S
C54   C69    1.39938       .     S
C69   C54    1.39938       .     S
C56   H57    0.95031       .     S
H57   C56    0.95031       .     S
C56   C67    1.35090       .     S
C67   C56    1.35090       .     S
C58   H59    0.94957   1_655     S
H59   C58    0.94957   1_455     S
C58   C75    1.39458       .     S
C75   C58    1.39458       .     S
C60   H61    0.95008       .     S
H61   C60    0.95008       .     S
C60   C69    1.34648       .     S
C69   C60    1.34648       .     S
C62   H63    0.94980       .     S
H63   C62    0.94980       .     S
C62   C64    1.36128       .     S
C64   C62    1.36128       .     S
C64   H65    0.94998       .     S
H65   C64    0.94998       .     S
C66   C67    1.41532       .     S
C67   C66    1.41532       .     S
C67   H68    0.95029   1_655     S
H68   C67    0.95029   1_455     S
C69   H70    0.95026       .     S
H70   C69    0.95026       .     S
C71   H72    0.95007       .     S
H72   C71    0.95007       .     S
C71   C77    1.36568       .     S
C77   C71    1.36568       .     S
C73   H74    0.94983       .     S
H74   C73    0.94983       .     S
C73   C75    1.36032   1_565     S
C75   C73    1.36032   1_545     S
C75   H76    0.95025       .     S
H76   C75    0.95025       .     S
C77   H78    0.94974   1_545     S
H78   C77    0.94974   1_565     S
C77   C79    1.39778       .     S
C79   C77    1.39778       .     S
C79   H80    0.94953   1_655     S
H80   C79    0.94953   1_455     S
O81   H82    0.85064       .     S
H82   O81    0.85064       .     S
O81   H83    0.84982       .     S
H83   O81    0.84982       .     S
O81   H1     1.90395       .     S
H1    O81    1.90395       .     S
O3    H2     1.85581   1_556     S
H2    O3     1.85581   1_554     S
N22   H4     2.01325       .     S
H4    N22    2.01325       .     S
O14   H7     1.98976       .     S
H7    O14    1.98976       .     S
O0    H20    2.02004       .     S
H20   O0     2.02004       .     S
H1    O0     0.86983       .     S
O0    H1     0.86983       .     S
H2    O0     0.86972       .     S
O0    H2     0.86972       .     S
H4    O3     0.86875       .     S
O3    H4     0.86875       .     S
H5    O3     0.78499       .     S
O3    H5     0.78499       .     S
H7    O6     0.83930       .     S
O6    H7     0.83930       .     S
C8    O6     1.44830       .     S
O6    C8     1.44830       .     S
H9    C8     0.98048   1_545     S
C8    H9     0.98048   1_565     S
H10   C8     0.97974   1_545     S
C8    H10    0.97974   1_565     S
H11   C8     0.97970       .     S
C8    H11    0.97970       .     S
C24   O12    1.23982       .     S
O12   C24    1.23982       .     S
C23   O13    1.22744       .     S
O13   C23    1.22744       .     S
C47   O14    1.21582       .     S
O14   C47    1.21582       .     S
H16   N15    0.87980       .     S
N15   H16    0.87980       .     S
C23   N15    1.35501       .     S
N15   C23    1.35501       .     S
C33   N15    1.41201   1_655     S
N15   C33    1.41201   1_455     S
H18   N17    0.88043       .     S
N17   H18    0.88043       .     S
C25   N17    1.41745       .     S
N17   C25    1.41745       .     S
C47   N17    1.35801       .     S
N17   C47    1.35801       .     S
H20   N19    0.87967       .     S
N19   H20    0.87967       .     S
C24   N19    1.34627       .     S
N19   C24    1.34627       .     S
C48   N19    1.40670       .     S
N19   C48    1.40670       .     S
C31   N21    1.37961       .     S
N21   C31    1.37961       .     S
C58   N21    1.31500       .     S
N21   C58    1.31500       .     S
C28   N22    1.36642       .     S
N22   C28    1.36642       .     S
C54   N22    1.32295       .     S
N22   C54    1.32295       .     S
C30   C23    1.50601       .     S
C23   C30    1.50601       .     S
C36   C24    1.49675       .     S
C24   C36    1.49675       .     S
C39   C25    1.37601       .     S
C25   C39    1.37601       .     S
C62   C25    1.40443   1_545     S
C25   C62    1.40443   1_565     S
H27   C26    0.94927       .     S
C26   H27    0.94927       .     S
C30   C26    1.39327       .     S
C26   C30    1.39327       .     S
C36   C26    1.39962       .     S
C26   C36    1.39962       .     S
C45   C28    1.42206       .     S
C28   C45    1.42206       .     S
C51   C28    1.41168       .     S
C28   C51    1.41168       .     S
C66   N29    1.35954       .     S
N29   C66    1.35954       .     S
C79   N29    1.33071       .     S
N29   C79    1.33071       .     S
C37   C30    1.39351       .     S
C30   C37    1.39351       .     S
C46   C31    1.40381   1_565     S
C31   C46    1.40381   1_545     S
C64   C31    1.40685       .     S
C31   C64    1.40685       .     S
C34   C32    1.39123       .     S
C32   C34    1.39123       .     S
C37   C32    1.38934       .     S
C32   C37    1.38934       .     S
C47   C32    1.50455       .     S
C32   C47    1.50455       .     S
C41   C33    1.37242       .     S
C33   C41    1.37242       .     S
C43   C33    1.41484       .     S
C33   C43    1.41484       .     S
H35   C34    0.94989       .     S
C34   H35    0.94989       .     S
C36   C34    1.39336       .     S
C34   C36    1.39336       .     S
H38   C37    0.95031       .     S
C37   H38    0.95031       .     S
H40   C39    0.95024       .     S
C39   H40    0.95024       .     S
C46   C39    1.41161       .     S
C39   C46    1.41161       .     S
H42   C41    0.95006       .     S
C41   H42    0.95006       .     S
C45   C41    1.41739       .     S
C41   C45    1.41739       .     S
H44   C43    0.94983       .     S
C43   H44    0.94983       .     S
C51   C43    1.36784       .     S
C43   C51    1.36784       .     S
C60   C45    1.42115       .     S
C45   C60    1.42115       .     S
C73   C46    1.40983       .     S
C46   C73    1.40983       .     S
C49   C48    1.36414       .     S
C48   C49    1.36414       .     S
C56   C48    1.42977       .     S
C48   C56    1.42977       .     S
H50   C49    0.95003       .     S
C49   H50    0.95003       .     S
C53   C49    1.40735       .     S
C49   C53    1.40735       .     S
H52   C51    0.95022       .     S
C51   H52    0.95022       .     S
C66   C53    1.41522       .     S
C53   C66    1.41522       .     S
C71   C53    1.41537       .     S
C53   C71    1.41537       .     S
H55   C54    0.94947       .     S
C54   H55    0.94947       .     S
C69   C54    1.39938       .     S
C54   C69    1.39938       .     S
H57   C56    0.95031       .     S
C56   H57    0.95031       .     S
C67   C56    1.35090       .     S
C56   C67    1.35090       .     S
H59   C58    0.94957   1_455     S
C58   H59    0.94957   1_655     S
C75   C58    1.39458       .     S
C58   C75    1.39458       .     S
H61   C60    0.95008       .     S
C60   H61    0.95008       .     S
C69   C60    1.34648       .     S
C60   C69    1.34648       .     S
H63   C62    0.94980       .     S
C62   H63    0.94980       .     S
C64   C62    1.36128       .     S
C62   C64    1.36128       .     S
H65   C64    0.94998       .     S
C64   H65    0.94998       .     S
C67   C66    1.41532       .     S
C66   C67    1.41532       .     S
H68   C67    0.95029   1_455     S
C67   H68    0.95029   1_655     S
H70   C69    0.95026       .     S
C69   H70    0.95026       .     S
H72   C71    0.95007       .     S
C71   H72    0.95007       .     S
C77   C71    1.36568       .     S
C71   C77    1.36568       .     S
H74   C73    0.94983       .     S
C73   H74    0.94983       .     S
C75   C73    1.36032   1_545     S
C73   C75    1.36032   1_565     S
H76   C75    0.95025       .     S
C75   H76    0.95025       .     S
H78   C77    0.94974   1_565     S
C77   H78    0.94974   1_545     S
C79   C77    1.39778       .     S
C77   C79    1.39778       .     S
H80   C79    0.94953   1_455     S
C79   H80    0.94953   1_655     S
H82   O81    0.85064       .     S
O81   H82    0.85064       .     S
H83   O81    0.84982       .     S
O81   H83    0.84982       .     S
