data_I
_chemical_name_common  '/data/user2/wty/HOF/MOFDiff/mofdiff/data/test/270-fju-56'
_cell_length_a  4.83380
_cell_length_b 12.10520
_cell_length_c 13.01760
_cell_angle_alpha 101.20000
_cell_angle_beta  90.86600
_cell_angle_gamma 97.39200
_space_group_name_H-M_alt      'P 1'


loop_
_space_group_symop_operation_xyz
  'x, y, z' 

loop_
_atom_site_label
_atom_site_fract_x
_atom_site_fract_y
_atom_site_fract_z
_atom_site_type_symbol
O0      0.8607    0.423   0.6854     O
O1       0.118   0.8156   0.6613     O
O2      0.0199   0.4176    0.307     O
N3      0.1422   0.5966   0.2743     N
N4       0.892    0.343   0.5129     N
H5     0.83935  0.34823  0.44916     H
N6      0.4092   0.7813   0.7865     N
H7     0.53015  0.73648  0.79877     H
N8      0.5839   0.5879   0.8934     N
C9       0.803   0.4189   0.5924     C
C10     0.7193   0.5828   0.9843     C
C11     0.9975   0.5846   0.1768     C
N12     0.5127    0.983   0.5034     N
C13     0.0586   0.2566   0.5197     C
C14     0.1969   0.2468   0.6088     C
H15    0.18778  0.30033  0.67213     H
C16     0.7705   0.5032   0.1423     C
H17    0.70909  0.44901  0.18384     H
C18     0.4822   0.4759   0.4613     C
H19    0.50812  0.40977  0.41162     H
C20     0.3817   0.6636   0.6104     C
C21     0.6184   0.4976   0.5578     C
C22     0.3976   0.4195   0.0072     C
H23     0.3326   0.3623  0.04507     H
C24     0.6304   0.5001   0.0465     C
C25     0.3666   0.0754   0.5123     C
C26     0.1469   0.5163   0.3324     C
C27     0.2586   0.6439   0.5105     C
H28    0.14072  0.69509  0.49292     H
C29     0.3064   0.5496   0.4354     C
C30      0.086   0.6645   0.1136     C
H31    0.24334  0.71995  0.13654     H
C32     0.3661   0.5102   0.8606     C
H33    0.27166  0.51274  0.79669     H
C34     0.2913   0.7609   0.6885     C
C35     0.5681   0.5926   0.6337     C
H36    0.66184  0.60811  0.70059     H
C37     0.3562   0.8683   0.8716     C
C38     0.2653   0.4235   0.9149     C
H39    0.10887  0.36919  0.88769     H
C40     0.9537   0.6638   0.0222     C
H41    0.01871   0.7189   0.9821     H
C42     0.3553   0.1549   0.6053     C
C43     0.2306   0.0908   0.4197     C
H44    0.24667  0.04059  0.35483     H
C45     0.0761   0.1786   0.4247     C
H46      0.979  0.18734  0.36341     H
C47     0.6495   0.9729   0.5878     C
H48     0.7519  0.91029  0.58334     H
C49     0.5073   0.1386   0.6922     C
H50    0.50889  0.19031  0.75731     H
C51      0.272   0.0302   0.0494     C
C52     0.4824   0.8677   0.9675     C
H53    0.60123  0.81217  0.97268     H
C54     0.1871   0.9495   0.8662     C
H55    0.09963  0.95152  0.80084     H
C56     0.1403     0.03   0.9556     C
C57      0.655   0.0473   0.6829     C
H58    0.75904  0.03562  0.74137     H
C59      0.439   0.9465    0.056     C
H60    0.52328  0.94329  0.12149     H
N61      0.242   0.1079   0.1396     N
C62      0.068   0.1801   0.1342     C
H63    0.03726   0.2315  0.19675     H
C64      0.925   0.1873   0.0439     C
H65    0.80109  0.24228  0.04391     H
C66      0.967   0.1125   0.9544     C
H67    0.87649  0.11708  0.89037     H
O68     0.4642   0.8125   0.3328     O
H69    0.46519   0.8499   0.3944     H
C70      0.727   0.8314   0.2926     C
H71    0.71746  0.79975  0.21715     H
H72    0.85924  0.79438  0.32765     H
H73     0.7902  0.91324  0.30451     H
loop_
_geom_bond_atom_site_label_1
_geom_bond_atom_site_label_2
_geom_bond_distance
_geom_bond_site_symmetry_2
_ccdc_geom_bond_type
H5    O2     2.31418   1_655     S
O2    H5     2.31418   1_455     S
H7    N8     2.40648       .     S
N8    H7     2.40648       .     S
H69   N12    1.91543       .     S
N12   H69    1.91543       .     S
O0    C9     1.22833       .     S
C9    O0     1.22833       .     S
O1    C34    1.22082       .     S
C34   O1     1.22082       .     S
O2    C26    1.25115       .     S
C26   O2     1.25115       .     S
N3    C11    1.41303   1_455     S
C11   N3     1.41303   1_655     S
N3    C26    1.34468       .     S
C26   N3     1.34468       .     S
N4    H5     0.88058       .     S
H5    N4     0.88058       .     S
N4    C9     1.35869       .     S
C9    N4     1.35869       .     S
N4    C13    1.41449   1_655     S
C13   N4     1.41449   1_455     S
N6    H7     0.87986       .     S
H7    N6     0.87986       .     S
N6    C34    1.35376       .     S
C34   N6     1.35376       .     S
N6    C37    1.42365       .     S
C37   N6     1.42365       .     S
N8    C10    1.35932       .     S
C10   N8     1.35932       .     S
N8    C32    1.32325       .     S
C32   N8     1.32325       .     S
C9    C21    1.50996       .     S
C21   C9     1.50996       .     S
C10   C24    1.43429   1_556     S
C24   C10    1.43429   1_554     S
C10   C40    1.41348   1_556     S
C40   C10    1.41348   1_554     S
C11   C16    1.38262       .     S
C16   C11    1.38262       .     S
C11   C30    1.41726   1_655     S
C30   C11    1.41726   1_455     S
N12   C25    1.38515   1_565     S
C25   N12    1.38515   1_545     S
N12   C47    1.30780       .     S
C47   N12    1.30780       .     S
C13   C14    1.36261       .     S
C14   C13    1.36261       .     S
C13   C45    1.41356       .     S
C45   C13    1.41356       .     S
C14   H15    0.94995       .     S
H15   C14    0.94995       .     S
C14   C42    1.42354       .     S
C42   C14    1.42354       .     S
C16   H17    0.95047       .     S
H17   C16    0.95047       .     S
C16   C24    1.40179       .     S
C24   C16    1.40179       .     S
C18   H19    0.94969       .     S
H19   C18    0.94969       .     S
C18   C21    1.37215       .     S
C21   C18    1.37215       .     S
C18   C29    1.39105       .     S
C29   C18    1.39105       .     S
C20   C27    1.38627       .     S
C27   C20    1.38627       .     S
C20   C34    1.51412       .     S
C34   C20    1.51412       .     S
C20   C35    1.39097       .     S
C35   C20    1.39097       .     S
C21   C35    1.41267       .     S
C35   C21    1.41267       .     S
C22   H23    0.95000       .     S
H23   C22    0.95000       .     S
C22   C24    1.40932       .     S
C24   C22    1.40932       .     S
C22   C38    1.36467   1_554     S
C38   C22    1.36467   1_556     S
C25   C42    1.39918       .     S
C42   C25    1.39918       .     S
C25   C43    1.41946       .     S
C43   C25    1.41946       .     S
C26   C29    1.49450       .     S
C29   C26    1.49450       .     S
C27   H28    0.95028       .     S
H28   C27    0.95028       .     S
C27   C29    1.39763       .     S
C29   C27    1.39763       .     S
C30   H31    0.94978       .     S
H31   C30    0.94978       .     S
C30   C40    1.34029   1_455     S
C40   C30    1.34029   1_655     S
C32   H33    0.95056       .     S
H33   C32    0.95056       .     S
C32   C38    1.41618       .     S
C38   C32    1.41618       .     S
C35   H36    0.94944       .     S
H36   C35    0.94944       .     S
C37   C52    1.38286       .     S
C52   C37    1.38286       .     S
C37   C54    1.36788       .     S
C54   C37    1.36788       .     S
C38   H39    0.95025       .     S
H39   C38    0.95025       .     S
C40   H41    0.94995   1_654     S
H41   C40    0.94995   1_456     S
C42   C49    1.39905       .     S
C49   C42    1.39905       .     S
C43   H44    0.95042       .     S
H44   C43    0.95042       .     S
C43   C45    1.36764       .     S
C45   C43    1.36764       .     S
C45   H46    0.94990   1_455     S
H46   C45    0.94990   1_655     S
C47   H48    0.95032       .     S
H48   C47    0.95032       .     S
C47   C57    1.37990   1_565     S
C57   C47    1.37990   1_545     S
C49   H50    0.95012       .     S
H50   C49    0.95012       .     S
C49   C57    1.37824       .     S
C57   C49    1.37824       .     S
C51   C56    1.36792   1_554     S
C56   C51    1.36792   1_556     S
C51   C59    1.38845   1_545     S
C59   C51    1.38845   1_565     S
C51   N61    1.37682       .     S
N61   C51    1.37682       .     S
C52   H53    0.94980       .     S
H53   C52    0.94980       .     S
C52   C59    1.38313   1_556     S
C59   C52    1.38313   1_554     S
C54   H55    0.95034       .     S
H55   C54    0.95034       .     S
C54   C56    1.40686   1_565     S
C56   C54    1.40687   1_545     S
C56   C66    1.38574   1_455     S
C66   C56    1.38574   1_655     S
C57   H58    0.94909       .     S
H58   C57    0.94909       .     S
C59   H60    0.94906       .     S
H60   C59    0.94906       .     S
N61   C62    1.29902       .     S
C62   N61    1.29902       .     S
C62   H63    0.95019       .     S
H63   C62    0.95019       .     S
C62   C64    1.37765   1_455     S
C64   C62    1.37765   1_655     S
C64   H65    0.95091       .     S
H65   C64    0.95091       .     S
C64   C66    1.36497   1_554     S
C66   C64    1.36497   1_556     S
C66   H67    0.94995       .     S
H67   C66    0.94995       .     S
O68   H69    0.84042       .     S
H69   O68    0.84042       .     S
O68   C70    1.38987       .     S
C70   O68    1.38987       .     S
C70   H71    0.98056       .     S
H71   C70    0.98056       .     S
C70   H72    0.98078       .     S
H72   C70    0.98078       .     S
C70   H73    0.97972       .     S
H73   C70    0.97972       .     S
O2    H5     2.31418   1_455     S
H5    O2     2.31418   1_655     S
N8    H7     2.40648       .     S
H7    N8     2.40648       .     S
N12   H69    1.91543       .     S
H69   N12    1.91543       .     S
C9    O0     1.22833       .     S
O0    C9     1.22833       .     S
C34   O1     1.22082       .     S
O1    C34    1.22082       .     S
C26   O2     1.25115       .     S
O2    C26    1.25115       .     S
C11   N3     1.41303   1_655     S
N3    C11    1.41303   1_455     S
C26   N3     1.34468       .     S
N3    C26    1.34468       .     S
H5    N4     0.88058       .     S
N4    H5     0.88058       .     S
C9    N4     1.35869       .     S
N4    C9     1.35869       .     S
C13   N4     1.41449   1_455     S
N4    C13    1.41449   1_655     S
H7    N6     0.87986       .     S
N6    H7     0.87986       .     S
C34   N6     1.35376       .     S
N6    C34    1.35376       .     S
C37   N6     1.42365       .     S
N6    C37    1.42365       .     S
C10   N8     1.35932       .     S
N8    C10    1.35932       .     S
C32   N8     1.32325       .     S
N8    C32    1.32325       .     S
C21   C9     1.50996       .     S
C9    C21    1.50996       .     S
C24   C10    1.43429   1_554     S
C10   C24    1.43429   1_556     S
C40   C10    1.41348   1_554     S
C10   C40    1.41348   1_556     S
C16   C11    1.38262       .     S
C11   C16    1.38262       .     S
C30   C11    1.41726   1_455     S
C11   C30    1.41726   1_655     S
C25   N12    1.38515   1_545     S
N12   C25    1.38515   1_565     S
C47   N12    1.30780       .     S
N12   C47    1.30780       .     S
C14   C13    1.36261       .     S
C13   C14    1.36261       .     S
C45   C13    1.41356       .     S
C13   C45    1.41356       .     S
H15   C14    0.94995       .     S
C14   H15    0.94995       .     S
C42   C14    1.42354       .     S
C14   C42    1.42354       .     S
H17   C16    0.95047       .     S
C16   H17    0.95047       .     S
C24   C16    1.40179       .     S
C16   C24    1.40179       .     S
H19   C18    0.94969       .     S
C18   H19    0.94969       .     S
C21   C18    1.37215       .     S
C18   C21    1.37215       .     S
C29   C18    1.39105       .     S
C18   C29    1.39105       .     S
C27   C20    1.38627       .     S
C20   C27    1.38627       .     S
C34   C20    1.51412       .     S
C20   C34    1.51412       .     S
C35   C20    1.39097       .     S
C20   C35    1.39097       .     S
C35   C21    1.41267       .     S
C21   C35    1.41267       .     S
H23   C22    0.95000       .     S
C22   H23    0.95000       .     S
C24   C22    1.40932       .     S
C22   C24    1.40932       .     S
C38   C22    1.36467   1_556     S
C22   C38    1.36467   1_554     S
C42   C25    1.39918       .     S
C25   C42    1.39918       .     S
C43   C25    1.41946       .     S
C25   C43    1.41946       .     S
C29   C26    1.49450       .     S
C26   C29    1.49450       .     S
H28   C27    0.95028       .     S
C27   H28    0.95028       .     S
C29   C27    1.39763       .     S
C27   C29    1.39763       .     S
H31   C30    0.94978       .     S
C30   H31    0.94978       .     S
C40   C30    1.34029   1_655     S
C30   C40    1.34029   1_455     S
H33   C32    0.95056       .     S
C32   H33    0.95056       .     S
C38   C32    1.41618       .     S
C32   C38    1.41618       .     S
H36   C35    0.94944       .     S
C35   H36    0.94944       .     S
C52   C37    1.38286       .     S
C37   C52    1.38286       .     S
C54   C37    1.36788       .     S
C37   C54    1.36788       .     S
H39   C38    0.95025       .     S
C38   H39    0.95025       .     S
H41   C40    0.94995   1_456     S
C40   H41    0.94995   1_654     S
C49   C42    1.39905       .     S
C42   C49    1.39905       .     S
H44   C43    0.95042       .     S
C43   H44    0.95042       .     S
C45   C43    1.36764       .     S
C43   C45    1.36764       .     S
H46   C45    0.94990   1_655     S
C45   H46    0.94990   1_455     S
H48   C47    0.95032       .     S
C47   H48    0.95032       .     S
C57   C47    1.37990   1_545     S
C47   C57    1.37990   1_565     S
H50   C49    0.95012       .     S
C49   H50    0.95012       .     S
C57   C49    1.37824       .     S
C49   C57    1.37824       .     S
C56   C51    1.36792   1_556     S
C51   C56    1.36792   1_554     S
C59   C51    1.38845   1_565     S
C51   C59    1.38845   1_545     S
N61   C51    1.37682       .     S
C51   N61    1.37682       .     S
H53   C52    0.94980       .     S
C52   H53    0.94980       .     S
C59   C52    1.38313   1_554     S
C52   C59    1.38313   1_556     S
H55   C54    0.95034       .     S
C54   H55    0.95034       .     S
C56   C54    1.40687   1_545     S
C54   C56    1.40686   1_565     S
C66   C56    1.38574   1_655     S
C56   C66    1.38574   1_455     S
H58   C57    0.94909       .     S
C57   H58    0.94909       .     S
H60   C59    0.94906       .     S
C59   H60    0.94906       .     S
C62   N61    1.29902       .     S
N61   C62    1.29902       .     S
H63   C62    0.95019       .     S
C62   H63    0.95019       .     S
C64   C62    1.37765   1_655     S
C62   C64    1.37765   1_455     S
H65   C64    0.95091       .     S
C64   H65    0.95091       .     S
C66   C64    1.36497   1_556     S
C64   C66    1.36497   1_554     S
H67   C66    0.94995       .     S
C66   H67    0.94995       .     S
H69   O68    0.84042       .     S
O68   H69    0.84042       .     S
C70   O68    1.38987       .     S
O68   C70    1.38987       .     S
H71   C70    0.98056       .     S
C70   H71    0.98056       .     S
H72   C70    0.98078       .     S
C70   H72    0.98078       .     S
H73   C70    0.97972       .     S
C70   H73    0.97972       .     S
