data_I
_chemical_name_common  '/data/user2/wty/HOF/MOFDiff/mofdiff/data/test/271-2'
_cell_length_a 16.09620
_cell_length_b 14.36760
_cell_length_c  6.77280
_cell_angle_alpha 90.00000
_cell_angle_beta  97.20300
_cell_angle_gamma 90.00000
_space_group_name_H-M_alt      'P 1'


loop_
_space_group_symop_operation_xyz
  'x, y, z' 

loop_
_atom_site_label
_atom_site_fract_x
_atom_site_fract_y
_atom_site_fract_z
_atom_site_type_symbol
N0     0.47901  0.12663   0.7231     N
N1     0.59167  0.05548   0.6073     N
C2     0.53318  0.12054   0.5901     C
N3     0.52685  0.18056   0.4397     N
H4      0.5997   0.0175    0.716     H
H5      0.4883   0.2267    0.446     H
H6      0.6249   0.0487    0.509     H
H7      0.4778   0.0791    0.813     H
H8      0.5722    0.191    0.373     H
H9      0.4345   0.1665    0.703     H
P10    0.32781  0.13821  0.07055     P
O11    0.73952   0.1418   0.9801     O
P12    0.72411   0.1431  0.20039     P
O13    0.31396  0.13476    0.295     O
O14    0.67281  0.05585   0.2424     O
O15    0.68028  0.22886   0.2603     O
O16    0.37778  0.05211   0.0267     O
O17    0.36812  0.22847   0.0196     O
C18    0.22539   0.1297   0.9325     C
C19    0.98309  0.12377   0.5775     C
C20    0.82459  0.13109   0.3441     C
C21    0.97333  0.16026   0.3845     C
H22    0.02003  0.18283   0.3318     H
C23    0.06649  0.12255      0.7     C
C24    0.13947  0.13939   0.6153     C
H25    0.13581  0.14878   0.4786     H
C26    0.91125  0.09085   0.6497     C
H27    0.91565  0.06583   0.7773     H
C28    0.21713  0.14259   0.7277     C
H29    0.26454  0.15352   0.6655     H
C30    0.07579    0.107   0.9052     C
H31    0.02862   0.0942   0.9669     H
C32    0.15336   0.1103    0.019     C
H33    0.15742   0.0994   0.1553     H
C34    0.89619  0.16357   0.2705     C
H35     0.8919  0.18789   0.1423     H
C36    0.83347  0.09445   0.5365     C
H37    0.78664  0.07222   0.5891     H
H38      0.658    0.017    0.147     H
H39      0.334   0.1805    0.367     H
H40      0.715   0.1858    0.907     H
loop_
_geom_bond_atom_site_label_1
_geom_bond_atom_site_label_2
_geom_bond_distance
_geom_bond_site_symmetry_2
_ccdc_geom_bond_type
H6    O14    2.05298       .     S
O14   H6     2.05298       .     S
H7    O16    2.32840   1_556     S
O16   H7     2.32840   1_554     S
H8    O15    2.05864       .     S
O15   H8     2.05864       .     S
N0    C2     1.33277       .     S
C2    N0     1.33277       .     S
N0    H7     0.91675       .     S
H7    N0     0.91675       .     S
N0    H9     0.91406       .     S
H9    N0     0.91406       .     S
N1    C2     1.32144       .     S
C2    N1     1.32144       .     S
N1    H4     0.91247       .     S
H4    N1     0.91247       .     S
N1    H6     0.91001       .     S
H6    N1     0.91001       .     S
C2    N3     1.32876       .     S
N3    C2     1.32876       .     S
N3    H5     0.91266       .     S
H5    N3     0.91266       .     S
N3    H8     0.91767       .     S
H8    N3     0.91767       .     S
P10   O13    1.56461       .     S
O13   P10    1.56461       .     S
P10   O16    1.52491       .     S
O16   P10    1.52491       .     S
P10   O17    1.50929       .     S
O17   P10    1.50929       .     S
P10   C18    1.79455   1_554     S
C18   P10    1.79455   1_556     S
O11   P12    1.54295   1_556     S
P12   O11    1.54295   1_554     S
O11   H40    0.86691       .     S
H40   O11    0.86691       .     S
P12   O14    1.54698       .     S
O14   P12    1.54698       .     S
P12   O15    1.50079       .     S
O15   P12    1.50079       .     S
P12   C20    1.78834       .     S
C20   P12    1.78834       .     S
O13   H39    0.85690       .     S
H39   O13    0.85690       .     S
O14   H38    0.86443       .     S
H38   O14    0.86443       .     S
C18   C28    1.38913       .     S
C28   C18    1.38913       .     S
C18   C32    1.39121   1_556     S
C32   C18    1.39121   1_554     S
C19   C21    1.39882       .     S
C21   C19    1.39882       .     S
C19   C23    1.48710   1_655     S
C23   C19    1.48710   1_455     S
C19   C26    1.39348       .     S
C26   C19    1.39348       .     S
C20   C34    1.39232       .     S
C34   C20    1.39232       .     S
C20   C36    1.39602       .     S
C36   C20    1.39602       .     S
C21   H22    0.92999   1_655     S
H22   C21    0.92999   1_455     S
C21   C34    1.37830       .     S
C34   C21    1.37830       .     S
C23   C24    1.39159       .     S
C24   C23    1.39159       .     S
C23   C30    1.39701       .     S
C30   C23    1.39701       .     S
C24   H25    0.93015       .     S
H25   C24    0.93015       .     S
C24   C28    1.38043       .     S
C28   C24    1.38043       .     S
C26   H27    0.93046       .     S
H27   C26    0.93046       .     S
C26   C36    1.38462       .     S
C36   C26    1.38462       .     S
C28   H29    0.93011       .     S
H29   C28    0.93011       .     S
C30   H31    0.92978       .     S
H31   C30    0.92978       .     S
C30   C32    1.38345   1_556     S
C32   C30    1.38345   1_554     S
C32   H33    0.93051       .     S
H33   C32    0.93051       .     S
C34   H35    0.93044       .     S
H35   C34    0.93044       .     S
C36   H37    0.92976       .     S
H37   C36    0.92976       .     S
O14   H6     2.05298       .     S
H6    O14    2.05298       .     S
O16   H7     2.32840   1_554     S
H7    O16    2.32840   1_556     S
O15   H8     2.05864       .     S
H8    O15    2.05864       .     S
C2    N0     1.33277       .     S
N0    C2     1.33277       .     S
H7    N0     0.91675       .     S
N0    H7     0.91675       .     S
H9    N0     0.91406       .     S
N0    H9     0.91406       .     S
C2    N1     1.32144       .     S
N1    C2     1.32144       .     S
H4    N1     0.91247       .     S
N1    H4     0.91247       .     S
H6    N1     0.91001       .     S
N1    H6     0.91001       .     S
N3    C2     1.32876       .     S
C2    N3     1.32876       .     S
H5    N3     0.91266       .     S
N3    H5     0.91266       .     S
H8    N3     0.91767       .     S
N3    H8     0.91767       .     S
O13   P10    1.56461       .     S
P10   O13    1.56461       .     S
O16   P10    1.52491       .     S
P10   O16    1.52491       .     S
O17   P10    1.50929       .     S
P10   O17    1.50929       .     S
C18   P10    1.79455   1_556     S
P10   C18    1.79455   1_554     S
P12   O11    1.54295   1_554     S
O11   P12    1.54295   1_556     S
H40   O11    0.86691       .     S
O11   H40    0.86691       .     S
O14   P12    1.54698       .     S
P12   O14    1.54698       .     S
O15   P12    1.50079       .     S
P12   O15    1.50079       .     S
C20   P12    1.78834       .     S
P12   C20    1.78834       .     S
H39   O13    0.85690       .     S
O13   H39    0.85690       .     S
H38   O14    0.86443       .     S
O14   H38    0.86443       .     S
C28   C18    1.38913       .     S
C18   C28    1.38913       .     S
C32   C18    1.39121   1_554     S
C18   C32    1.39121   1_556     S
C21   C19    1.39882       .     S
C19   C21    1.39882       .     S
C23   C19    1.48710   1_455     S
C19   C23    1.48710   1_655     S
C26   C19    1.39348       .     S
C19   C26    1.39348       .     S
C34   C20    1.39232       .     S
C20   C34    1.39232       .     S
C36   C20    1.39602       .     S
C20   C36    1.39602       .     S
H22   C21    0.92999   1_455     S
C21   H22    0.92999   1_655     S
C34   C21    1.37830       .     S
C21   C34    1.37830       .     S
C24   C23    1.39159       .     S
C23   C24    1.39159       .     S
C30   C23    1.39701       .     S
C23   C30    1.39701       .     S
H25   C24    0.93015       .     S
C24   H25    0.93015       .     S
C28   C24    1.38043       .     S
C24   C28    1.38043       .     S
H27   C26    0.93046       .     S
C26   H27    0.93046       .     S
C36   C26    1.38462       .     S
C26   C36    1.38462       .     S
H29   C28    0.93011       .     S
C28   H29    0.93011       .     S
H31   C30    0.92978       .     S
C30   H31    0.92978       .     S
C32   C30    1.38345   1_554     S
C30   C32    1.38345   1_556     S
H33   C32    0.93051       .     S
C32   H33    0.93051       .     S
H35   C34    0.93044       .     S
C34   H35    0.93044       .     S
H37   C36    0.92976       .     S
C36   H37    0.92976       .     S
