data_I
_chemical_name_common  '/data/user2/wty/HOF/MOFDiff/mofdiff/data/test/271-1'
_cell_length_a  9.52410
_cell_length_b 10.40510
_cell_length_c 17.87750
_cell_angle_alpha 77.97600
_cell_angle_beta  78.13000
_cell_angle_gamma 72.03600
_space_group_name_H-M_alt      'P 1'


loop_
_space_group_symop_operation_xyz
  'x, y, z' 

loop_
_atom_site_label
_atom_site_fract_x
_atom_site_fract_y
_atom_site_fract_z
_atom_site_type_symbol
N0      0.7163   0.9446  0.45194     N
N1      0.8111  0.95086  0.54755     N
N2      0.7908   0.0764  0.50627     N
C3      0.7697   0.8724  0.51501     C
H4     0.77622   0.7805  0.53285     H
C5      0.7339   0.0679  0.44832     C
H6     0.70806     0.14  0.40854     H
H7       0.857    0.925   0.5921     H
H8       0.682    0.913   0.4156     H
O9     0.45743  0.32975  0.65198     O
P10     0.0621  0.30317  0.29289     P
O11    0.03891  0.16551  0.33285     O
P12    0.43143  0.19536  0.69499     P
O13    0.57955  0.07717  0.68979     O
O14    0.91002  0.41604   0.2983     O
O15    0.31683  0.15419  0.66582     O
O16    0.17061  0.34523  0.32558     O
C17     0.3721  0.20979  0.79573     C
C18     0.1244  0.29251  0.19183     C
C19     0.4193   0.1687  0.92696     C
H20    0.48541  0.12889  0.96245     H
C21     0.0249     0.33   0.1392     C
H22     0.9236  0.36636  0.15571     H
C23     0.2758  0.24299  0.95236     C
C24     0.2739   0.2394  0.16499     C
H25    0.34293  0.21358  0.19913     H
C26     0.2241  0.26105  0.03486     C
C27     0.1817   0.3018  0.89699     C
H28    0.08474  0.35325  0.91196     H
C29     0.0743    0.314  0.06242     C
H30    0.00513  0.33942  0.02837     H
C31     0.2289   0.2856  0.82014     C
H32    0.16329  0.32629  0.78445     H
C33     0.3226    0.224  0.08801     C
H34    0.42398  0.18788  0.07155     H
C35     0.4673   0.1517  0.85021     C
H36    0.56449  0.10084  0.83509     H
H37      0.826    0.383   0.3066     H
H38      0.661    0.111   0.6878     H
H39       0.34    0.429    0.583     H
N40     0.2192    0.634  0.44806     N
N41     0.2953  0.47898  0.53969     N
C42     0.1831   0.5216  0.44462     C
H43    0.13314  0.51393  0.40694     H
N44     0.2267    0.424  0.50067     N
C45     0.2906   0.6036  0.50793     C
H46    0.33073  0.66171  0.52455     H
H47      0.212   0.7119    0.411     H
H48      0.991     0.07   0.2961     H
P49    0.05896  0.85971  0.28337     P
P50    0.45845  0.63126  0.70637     P
O51    0.33039  0.66001   0.6636     O
O52    0.96638  0.75933  0.32635     O
O53    0.55527  0.48039  0.71256     O
O54    0.95745  0.00666  0.27731     O
O55    0.18759  0.83536  0.32569     O
C56     0.3953   0.6667  0.80344     C
O57    0.55861  0.72491   0.6656     O
C58     0.1218   0.8219  0.18663     C
C59     0.3465    0.594  0.94059     C
H60    0.35103  0.52292  0.98213     H
C61     0.1739   0.6875  0.17335     C
H62    0.17451   0.6166  0.21482     H
C63     0.2847   0.7284  0.95484     C
C64      0.401   0.5631  0.86669     C
H65    0.44184  0.47234  0.85931     H
C66     0.3337   0.8017  0.81621     C
H67    0.32912  0.87243   0.7745     H
C68     0.2273   0.7608  0.03483     C
C69     0.1741   0.8948  0.04966     C
H70    0.17377  0.96604   0.0084     H
C71     0.2792   0.8314  0.89048     C
H72    0.23796  0.92221   0.8977     H
C73     0.1216   0.9257  0.12368     C
H74    0.08591   0.0166  0.13135     H
C75     0.2251   0.6578  0.09881     C
H76    0.25896  0.56688  0.09119     H
H77     0.6577      0.7   0.6746     H
H78     0.8639    0.789   0.3227     H
H79      0.515    0.426    0.692     H
loop_
_geom_bond_atom_site_label_1
_geom_bond_atom_site_label_2
_geom_bond_distance
_geom_bond_site_symmetry_2
_ccdc_geom_bond_type
H39   O9     1.77832       .     S
O9    H39    1.77832       .     S
H47   O55    1.78204       .     S
O55   H47    1.78204       .     S
H48   O11    1.51742   1_655     S
O11   H48    1.51742   1_455     S
H79   O9     1.61683       .     S
O9    H79    1.61683       .     S
N0    C3     1.31973       .     S
C3    N0     1.31973       .     S
N0    C5     1.33110   1_565     S
C5    N0     1.33110   1_545     S
N0    H8     0.93780       .     S
H8    N0     0.93780       .     S
N1    N2     1.33775   1_565     S
N2    N1     1.33775   1_545     S
N1    C3     1.28498       .     S
C3    N1     1.28498       .     S
N1    H7     0.93766       .     S
H7    N1     0.93766       .     S
N2    C5     1.29364       .     S
C5    N2     1.29364       .     S
C3    H4     0.92973       .     S
H4    C3     0.92973       .     S
C5    H6     0.93003       .     S
H6    C5     0.93003       .     S
O9    P12    1.51499       .     S
P12   O9     1.51499       .     S
P10   O11    1.52141       .     S
O11   P10    1.52141       .     S
P10   O14    1.55787   1_455     S
O14   P10    1.55787   1_655     S
P10   O16    1.49503       .     S
O16   P10    1.49503       .     S
P10   C18    1.79734       .     S
C18   P10    1.79734       .     S
P12   O13    1.56034       .     S
O13   P12    1.56034       .     S
P12   O15    1.50412       .     S
O15   P12    1.50412       .     S
P12   C17    1.79640       .     S
C17   P12    1.79640       .     S
O13   H38    0.93745       .     S
H38   O13    0.93745       .     S
O14   H37    0.93816       .     S
H37   O14    0.93816       .     S
C17   C31    1.38120       .     S
C31   C17    1.38120       .     S
C17   C35    1.38420       .     S
C35   C17    1.38420       .     S
C18   C21    1.38613       .     S
C21   C18    1.38613       .     S
C18   C24    1.38096       .     S
C24   C18    1.38096       .     S
C19   H20    0.92981       .     S
H20   C19    0.92981       .     S
C19   C23    1.38235       .     S
C23   C19    1.38235       .     S
C19   C35    1.38424       .     S
C35   C19    1.38424       .     S
C21   H22    0.93021   1_455     S
H22   C21    0.93022   1_655     S
C21   C29    1.38363       .     S
C29   C21    1.38363       .     S
C23   C26    1.48752   1_556     S
C26   C23    1.48752   1_554     S
C23   C27    1.38990       .     S
C27   C23    1.38990       .     S
C24   H25    0.92991       .     S
H25   C24    0.92991       .     S
C24   C33    1.38499       .     S
C33   C24    1.38499       .     S
C26   C29    1.38595       .     S
C29   C26    1.38595       .     S
C26   C33    1.38656       .     S
C33   C26    1.38656       .     S
C27   H28    0.92955       .     S
H28   C27    0.92955       .     S
C27   C31    1.38338       .     S
C31   C27    1.38338       .     S
C29   H30    0.93001       .     S
H30   C29    0.93001       .     S
C31   H32    0.93011       .     S
H32   C31    0.93011       .     S
C33   H34    0.93031       .     S
H34   C33    0.93031       .     S
C35   H36    0.92976       .     S
H36   C35    0.92976       .     S
H39   N41    0.93940       .     S
N41   H39    0.93940       .     S
N40   C42    1.33286       .     S
C42   N40    1.33286       .     S
N40   C45    1.31672       .     S
C45   N40    1.31672       .     S
N40   H47    0.92807       .     S
H47   N40    0.92807       .     S
N41   N44    1.35095       .     S
N44   N41    1.35095       .     S
N41   C45    1.29371       .     S
C45   N41    1.29371       .     S
C42   H43    0.92964       .     S
H43   C42    0.92964       .     S
C42   N44    1.30188       .     S
N44   C42    1.30188       .     S
C45   H46    0.92955       .     S
H46   C45    0.92955       .     S
H48   O54    0.95687       .     S
O54   H48    0.95687       .     S
P49   O52    1.55363   1_455     S
O52   P49    1.55363   1_655     S
P49   O54    1.53186   1_465     S
O54   P49    1.53186   1_645     S
P49   O55    1.49913       .     S
O55   P49    1.49913       .     S
P49   C58    1.79345       .     S
C58   P49    1.79345       .     S
P50   O51    1.49164       .     S
O51   P50    1.49164       .     S
P50   O53    1.55035       .     S
O53   P50    1.55035       .     S
P50   C56    1.79155       .     S
C56   P50    1.79155       .     S
P50   O57    1.54344       .     S
O57   P50    1.54344       .     S
O52   H78    0.94029       .     S
H78   O52    0.94029       .     S
O53   H79    0.93863       .     S
H79   O53    0.93863       .     S
C56   C64    1.38740       .     S
C64   C56    1.38740       .     S
C56   C66    1.39271       .     S
C66   C56    1.39271       .     S
O57   H77    0.93698       .     S
H77   O57    0.93698       .     S
C58   C61    1.38566       .     S
C61   C58    1.38566       .     S
C58   C73    1.38788       .     S
C73   C58    1.38788       .     S
C59   H60    0.93006       .     S
H60   C59    0.93006       .     S
C59   C63    1.39499       .     S
C63   C59    1.39499       .     S
C59   C64    1.38209       .     S
C64   C59    1.38209       .     S
C61   H62    0.93014       .     S
H62   C61    0.93014       .     S
C61   C75    1.38578       .     S
C75   C61    1.38578       .     S
C63   C68    1.49099   1_556     S
C68   C63    1.49099   1_554     S
C63   C71    1.39700       .     S
C71   C63    1.39700       .     S
C64   H65    0.92992       .     S
H65   C64    0.92992       .     S
C66   H67    0.92978       .     S
H67   C66    0.92978       .     S
C66   C71    1.38433       .     S
C71   C66    1.38433       .     S
C68   C69    1.39069       .     S
C69   C68    1.39069       .     S
C68   C75    1.39663       .     S
C75   C68    1.39663       .     S
C69   H70    0.93020       .     S
H70   C69    0.93020       .     S
C69   C73    1.38217       .     S
C73   C69    1.38217       .     S
C71   H72    0.92993       .     S
H72   C71    0.92993       .     S
C73   H74    0.93031   1_565     S
H74   C73    0.93031   1_545     S
C75   H76    0.93004       .     S
H76   C75    0.93004       .     S
O9    H39    1.77832       .     S
H39   O9     1.77832       .     S
O55   H47    1.78204       .     S
H47   O55    1.78204       .     S
O11   H48    1.51742   1_455     S
H48   O11    1.51742   1_655     S
O9    H79    1.61683       .     S
H79   O9     1.61683       .     S
C3    N0     1.31973       .     S
N0    C3     1.31973       .     S
C5    N0     1.33110   1_545     S
N0    C5     1.33110   1_565     S
H8    N0     0.93780       .     S
N0    H8     0.93780       .     S
N2    N1     1.33775   1_545     S
N1    N2     1.33775   1_565     S
C3    N1     1.28498       .     S
N1    C3     1.28498       .     S
H7    N1     0.93766       .     S
N1    H7     0.93766       .     S
C5    N2     1.29364       .     S
N2    C5     1.29364       .     S
H4    C3     0.92973       .     S
C3    H4     0.92973       .     S
H6    C5     0.93003       .     S
C5    H6     0.93003       .     S
P12   O9     1.51499       .     S
O9    P12    1.51499       .     S
O11   P10    1.52141       .     S
P10   O11    1.52141       .     S
O14   P10    1.55787   1_655     S
P10   O14    1.55787   1_455     S
O16   P10    1.49503       .     S
P10   O16    1.49503       .     S
C18   P10    1.79734       .     S
P10   C18    1.79734       .     S
O13   P12    1.56034       .     S
P12   O13    1.56034       .     S
O15   P12    1.50412       .     S
P12   O15    1.50412       .     S
C17   P12    1.79640       .     S
P12   C17    1.79640       .     S
H38   O13    0.93745       .     S
O13   H38    0.93745       .     S
H37   O14    0.93816       .     S
O14   H37    0.93816       .     S
C31   C17    1.38120       .     S
C17   C31    1.38120       .     S
C35   C17    1.38420       .     S
C17   C35    1.38420       .     S
C21   C18    1.38613       .     S
C18   C21    1.38613       .     S
C24   C18    1.38096       .     S
C18   C24    1.38096       .     S
H20   C19    0.92981       .     S
C19   H20    0.92981       .     S
C23   C19    1.38235       .     S
C19   C23    1.38235       .     S
C35   C19    1.38424       .     S
C19   C35    1.38424       .     S
H22   C21    0.93022   1_655     S
C21   H22    0.93021   1_455     S
C29   C21    1.38363       .     S
C21   C29    1.38363       .     S
C26   C23    1.48752   1_554     S
C23   C26    1.48752   1_556     S
C27   C23    1.38990       .     S
C23   C27    1.38990       .     S
H25   C24    0.92991       .     S
C24   H25    0.92991       .     S
C33   C24    1.38499       .     S
C24   C33    1.38499       .     S
C29   C26    1.38595       .     S
C26   C29    1.38595       .     S
C33   C26    1.38656       .     S
C26   C33    1.38656       .     S
H28   C27    0.92955       .     S
C27   H28    0.92955       .     S
C31   C27    1.38338       .     S
C27   C31    1.38338       .     S
H30   C29    0.93001       .     S
C29   H30    0.93001       .     S
H32   C31    0.93011       .     S
C31   H32    0.93011       .     S
H34   C33    0.93031       .     S
C33   H34    0.93031       .     S
H36   C35    0.92976       .     S
C35   H36    0.92976       .     S
N41   H39    0.93940       .     S
H39   N41    0.93940       .     S
C42   N40    1.33286       .     S
N40   C42    1.33286       .     S
C45   N40    1.31672       .     S
N40   C45    1.31672       .     S
H47   N40    0.92807       .     S
N40   H47    0.92807       .     S
N44   N41    1.35095       .     S
N41   N44    1.35095       .     S
C45   N41    1.29371       .     S
N41   C45    1.29371       .     S
H43   C42    0.92964       .     S
C42   H43    0.92964       .     S
N44   C42    1.30188       .     S
C42   N44    1.30188       .     S
H46   C45    0.92955       .     S
C45   H46    0.92955       .     S
O54   H48    0.95687       .     S
H48   O54    0.95687       .     S
O52   P49    1.55363   1_655     S
P49   O52    1.55363   1_455     S
O54   P49    1.53186   1_645     S
P49   O54    1.53186   1_465     S
O55   P49    1.49913       .     S
P49   O55    1.49913       .     S
C58   P49    1.79345       .     S
P49   C58    1.79345       .     S
O51   P50    1.49164       .     S
P50   O51    1.49164       .     S
O53   P50    1.55035       .     S
P50   O53    1.55035       .     S
C56   P50    1.79155       .     S
P50   C56    1.79155       .     S
O57   P50    1.54344       .     S
P50   O57    1.54344       .     S
H78   O52    0.94029       .     S
O52   H78    0.94029       .     S
H79   O53    0.93863       .     S
O53   H79    0.93863       .     S
C64   C56    1.38740       .     S
C56   C64    1.38740       .     S
C66   C56    1.39271       .     S
C56   C66    1.39271       .     S
H77   O57    0.93698       .     S
O57   H77    0.93698       .     S
C61   C58    1.38566       .     S
C58   C61    1.38566       .     S
C73   C58    1.38788       .     S
C58   C73    1.38788       .     S
H60   C59    0.93006       .     S
C59   H60    0.93006       .     S
C63   C59    1.39499       .     S
C59   C63    1.39499       .     S
C64   C59    1.38209       .     S
C59   C64    1.38209       .     S
H62   C61    0.93014       .     S
C61   H62    0.93014       .     S
C75   C61    1.38578       .     S
C61   C75    1.38578       .     S
C68   C63    1.49099   1_554     S
C63   C68    1.49099   1_556     S
C71   C63    1.39700       .     S
C63   C71    1.39700       .     S
H65   C64    0.92992       .     S
C64   H65    0.92992       .     S
H67   C66    0.92978       .     S
C66   H67    0.92978       .     S
C71   C66    1.38433       .     S
C66   C71    1.38433       .     S
C69   C68    1.39069       .     S
C68   C69    1.39069       .     S
C75   C68    1.39663       .     S
C68   C75    1.39663       .     S
H70   C69    0.93020       .     S
C69   H70    0.93020       .     S
C73   C69    1.38217       .     S
C69   C73    1.38217       .     S
H72   C71    0.92993       .     S
C71   H72    0.92993       .     S
H74   C73    0.93031   1_545     S
C73   H74    0.93031   1_565     S
H76   C75    0.93004       .     S
C75   H76    0.93004       .     S
