data_I
_chemical_name_common  '/data/user2/wty/HOF/MOFDiff/mofdiff/data/test/272-hof-215'
_cell_length_a 22.19510
_cell_length_b 18.56630
_cell_length_c 13.74400
_cell_angle_alpha 90.00000
_cell_angle_beta  112.26700
_cell_angle_gamma 90.00000
_space_group_name_H-M_alt      'P 1'


loop_
_space_group_symop_operation_xyz
  'x, y, z' 

loop_
_atom_site_label
_atom_site_fract_x
_atom_site_fract_y
_atom_site_fract_z
_atom_site_type_symbol
N0     0.50127  0.39987  0.01163     N
N1      0.4574  0.34321  0.84636     N
H2     0.43941  0.34658  0.77903     H
N3      0.4947  0.27034  0.99789     N
N4     0.53174  0.32738  0.15702     N
H5     0.54125  0.36561  0.19519     H
H6     0.53715  0.28565  0.18625     H
N7     0.46295  0.46684  0.86017     N
H8      0.4732  0.50569  0.89688     H
H9      0.4454  0.46925  0.79271     H
N10    0.45489  0.21956  0.83284     N
H11    0.46144   0.1772  0.86019     H
H12    0.43871  0.22451  0.76561     H
C13    0.50869  0.33279  0.05288     C
C14    0.47412  0.40367  0.90724     C
C15     0.4697  0.27702  0.89407     C
O16    0.14122  0.62906  0.96666     O
H17     0.1202   0.6729   0.9376     H
C18    0.09784  0.58165   0.9661     C
O19    0.03868    0.588   0.9113     O
O20     0.0428   0.6008   0.9602     O
O21    0.38396   0.3691  0.63304     O
O22    0.10191  0.04959  0.81909     O
O23    0.13826  0.99094  0.97282     O
H24     0.1263   0.9512   0.9295     H
N25    0.20484  0.31114  0.14572     N
C26    0.37405  0.31141  0.57962     C
C27     0.3297  0.31252  0.46583     C
C28     0.2747  0.35651  0.42987     C
H29    0.26604  0.38721  0.47646     H
C30    0.23282  0.35483  0.32514     C
H31    0.19536  0.38296  0.30244     H
C32    0.24662  0.31118   0.2538     C
C33    0.30216  0.26784  0.28923     C
H34    0.31208  0.23909  0.24191     H
C35    0.34243  0.26753  0.39447     C
H36    0.37835  0.23706  0.41797     H
C37    0.17823  0.37801  0.09802     C
C38    0.21834  0.43869  0.11818     C
H39    0.26228  0.43479  0.16052     H
C40    0.19276  0.50454  0.07523     C
H41    0.21972  0.54469  0.08822     H
C42     0.1266  0.51117  0.01236     C
C43    0.08704  0.45047  0.99294     C
H44    0.04294  0.45456  0.95168     H
C45    0.11238  0.38404  0.03417     C
H46    0.08564  0.34364  0.01936     H
C47    0.18695  0.24595     0.09     C
C48    0.16897   0.2449  0.98052     C
H49    0.16996  0.28718  0.94487     H
C50    0.14976  0.18106  0.92557     C
H51    0.13679  0.18111   0.8528     H
C52    0.14954  0.11673  0.97746     C
C53    0.16951  0.11721  0.08677     C
H54    0.17115  0.07427  0.12252     H
C55    0.18693  0.18122  0.14246     C
H56    0.19865  0.18119  0.21499     H
C57    0.12749  0.04985  0.91526     C
O58    0.40033  0.25235  0.61821     O
C59    0.58314  0.11491    0.218     C
H60     0.5576   0.0768   0.2301     H
H61    0.57269  0.08776  0.26746     H
H62    0.62509  0.13742  0.25079     H
H63    0.62856  0.10414  0.25354     H
O64    0.56783  0.18416  0.25771     O
H65     0.5375  0.17821   0.2771     H
O66    0.53734  0.16749  0.17664     O
H67    0.52739  0.16951  0.11284     H
H68    0.58397  0.08435  0.16165     H
H69    0.57318  0.11932  0.14388     H
loop_
_geom_bond_atom_site_label_1
_geom_bond_atom_site_label_2
_geom_bond_distance
_geom_bond_site_symmetry_2
_ccdc_geom_bond_type
H2    O21    1.96062       .     S
O21   H2     1.96062       .     S
H6    O64    2.11472       .     S
O64   H6     2.11472       .     S
H6    O66    2.19787       .     S
O66   H6     2.19787       .     S
H12   O58    1.94656       .     S
O58   H12    1.94656       .     S
N0    C13    1.35236       .     S
C13   N0     1.35236       .     S
N0    C14    1.33092   1_554     S
C14   N0     1.33092   1_556     S
N1    H2     0.86003       .     S
H2    N1     0.86003       .     S
N1    C14    1.36476       .     S
C14   N1     1.36476       .     S
N1    C15    1.37078       .     S
C15   N1     1.37078       .     S
N3    C13    1.35430   1_556     S
C13   N3     1.35430   1_554     S
N3    C15    1.32638       .     S
C15   N3     1.32638       .     S
N4    H5     0.86003       .     S
H5    N4     0.86003       .     S
N4    H6     0.85996       .     S
H6    N4     0.85996       .     S
N4    C13    1.32872       .     S
C13   N4     1.32872       .     S
N7    H8     0.86000       .     S
H8    N7     0.86000       .     S
N7    H9     0.86004       .     S
H9    N7     0.86004       .     S
N7    C14    1.31680       .     S
C14   N7     1.31680       .     S
N10   H11    0.85997       .     S
H11   N10    0.85997       .     S
N10   H12    0.86008       .     S
H12   N10    0.86008       .     S
N10   C15    1.32088       .     S
C15   N10    1.32088       .     S
O16   H17    0.94788       .     S
H17   O16    0.94788       .     S
O16   C18    1.30241       .     S
C18   O16    1.30241       .     S
C18   O19    1.24732       .     S
O19   C18    1.24732       .     S
C18   O20    1.24510       .     S
O20   C18    1.24510       .     S
C18   C42    1.48877   1_556     S
C42   C18    1.48877   1_554     S
O19   O20    0.68553       .     S
O20   O19    0.68553       .     S
O21   C26    1.26976       .     S
C26   O21    1.26976       .     S
O22   C57    1.22503       .     S
C57   O22    1.22503       .     S
O23   H24    0.92172       .     S
H24   O23    0.92172       .     S
O23   C57    1.31755   1_565     S
C57   O23    1.31755   1_545     S
N25   C32    1.42217       .     S
C32   N25    1.42217       .     S
N25   C37    1.42358       .     S
C37   N25    1.42358       .     S
N25   C47    1.40663       .     S
C47   N25    1.40663       .     S
C26   C27    1.49953       .     S
C27   C26    1.49953       .     S
C26   O58    1.26073       .     S
O58   C26    1.26073       .     S
C27   C28    1.39437       .     S
C28   C27    1.39437       .     S
C27   C35    1.39624       .     S
C35   C27    1.39624       .     S
C28   H29    0.93012       .     S
H29   C28    0.93012       .     S
C28   C30    1.38669       .     S
C30   C28    1.38669       .     S
C30   H31    0.92994       .     S
H31   C30    0.92994       .     S
C30   C32    1.39268       .     S
C32   C30    1.39268       .     S
C32   C33    1.39617       .     S
C33   C32    1.39617       .     S
C33   H34    0.93000       .     S
H34   C33    0.93000       .     S
C33   C35    1.38249       .     S
C35   C33    1.38249       .     S
C35   H36    0.92995       .     S
H36   C35    0.92995       .     S
C37   C38    1.39700       .     S
C38   C37    1.39700       .     S
C37   C45    1.39526       .     S
C45   C37    1.39526       .     S
C38   H39    0.93000       .     S
H39   C38    0.93000       .     S
C38   C40    1.38258       .     S
C40   C38    1.38258       .     S
C40   H41    0.92986       .     S
H41   C40    0.92986       .     S
C40   C42    1.39874       .     S
C42   C40    1.39874       .     S
C42   C43    1.39092   1_554     S
C43   C42    1.39092   1_556     S
C43   H44    0.92992       .     S
H44   C43    0.92992       .     S
C43   C45    1.38458   1_556     S
C45   C43    1.38458   1_554     S
C45   H46    0.92991       .     S
H46   C45    0.92991       .     S
C47   C48    1.40309   1_554     S
C48   C47    1.40309   1_556     S
C47   C55    1.40158       .     S
C55   C47    1.40158       .     S
C48   H49    0.93001       .     S
H49   C48    0.93001       .     S
C48   C50    1.38311       .     S
C50   C48    1.38311       .     S
C50   H51    0.93004       .     S
H51   C50    0.93004       .     S
C50   C52    1.39205       .     S
C52   C50    1.39205       .     S
C52   C53    1.39605   1_556     S
C53   C52    1.39605   1_554     S
C52   C57    1.48159       .     S
C57   C52    1.48159       .     S
C53   H54    0.92994       .     S
H54   C53    0.92994       .     S
C53   C55    1.38687       .     S
C55   C53    1.38687       .     S
C55   H56    0.92998       .     S
H56   C55    0.92998       .     S
C59   H60    0.95973       .     S
H60   C59    0.95973       .     S
C59   H61    0.94312       .     S
H61   C59    0.94312       .     S
C59   H62    0.96264       .     S
H62   C59    0.96264       .     S
C59   H63    0.96004       .     S
H63   C59    0.96004       .     S
C59   O64    1.48558       .     S
O64   C59    1.48558       .     S
C59   O66    1.36805       .     S
O66   C59    1.36805       .     S
C59   H68    0.96586       .     S
H68   C59    0.96586       .     S
C59   H69    0.96056       .     S
H69   C59    0.96056       .     S
H60   H61    0.53564       .     S
H61   H60    0.53564       .     S
H62   H63    0.62204       .     S
H63   H62    0.62204       .     S
O64   H65    0.81997       .     S
H65   O64    0.81997       .     S
O64   O66    1.10626       .     S
O66   O64    1.10626       .     S
O66   H67    0.81995       .     S
H67   O66    0.81995       .     S
O21   H2     1.96062       .     S
H2    O21    1.96062       .     S
O64   H6     2.11472       .     S
H6    O64    2.11472       .     S
O66   H6     2.19787       .     S
H6    O66    2.19787       .     S
O58   H12    1.94656       .     S
H12   O58    1.94656       .     S
C13   N0     1.35236       .     S
N0    C13    1.35236       .     S
C14   N0     1.33092   1_556     S
N0    C14    1.33092   1_554     S
H2    N1     0.86003       .     S
N1    H2     0.86003       .     S
C14   N1     1.36476       .     S
N1    C14    1.36476       .     S
C15   N1     1.37078       .     S
N1    C15    1.37078       .     S
C13   N3     1.35430   1_554     S
N3    C13    1.35430   1_556     S
C15   N3     1.32638       .     S
N3    C15    1.32638       .     S
H5    N4     0.86003       .     S
N4    H5     0.86003       .     S
H6    N4     0.85996       .     S
N4    H6     0.85996       .     S
C13   N4     1.32872       .     S
N4    C13    1.32872       .     S
H8    N7     0.86000       .     S
N7    H8     0.86000       .     S
H9    N7     0.86004       .     S
N7    H9     0.86004       .     S
C14   N7     1.31680       .     S
N7    C14    1.31680       .     S
H11   N10    0.85997       .     S
N10   H11    0.85997       .     S
H12   N10    0.86008       .     S
N10   H12    0.86008       .     S
C15   N10    1.32088       .     S
N10   C15    1.32088       .     S
H17   O16    0.94788       .     S
O16   H17    0.94788       .     S
C18   O16    1.30241       .     S
O16   C18    1.30241       .     S
O19   C18    1.24732       .     S
C18   O19    1.24732       .     S
O20   C18    1.24510       .     S
C18   O20    1.24510       .     S
C42   C18    1.48877   1_554     S
C18   C42    1.48877   1_556     S
O20   O19    0.68553       .     S
O19   O20    0.68553       .     S
C26   O21    1.26976       .     S
O21   C26    1.26976       .     S
C57   O22    1.22503       .     S
O22   C57    1.22503       .     S
H24   O23    0.92172       .     S
O23   H24    0.92172       .     S
C57   O23    1.31755   1_545     S
O23   C57    1.31755   1_565     S
C32   N25    1.42217       .     S
N25   C32    1.42217       .     S
C37   N25    1.42358       .     S
N25   C37    1.42358       .     S
C47   N25    1.40663       .     S
N25   C47    1.40663       .     S
C27   C26    1.49953       .     S
C26   C27    1.49953       .     S
O58   C26    1.26073       .     S
C26   O58    1.26073       .     S
C28   C27    1.39437       .     S
C27   C28    1.39437       .     S
C35   C27    1.39624       .     S
C27   C35    1.39624       .     S
H29   C28    0.93012       .     S
C28   H29    0.93012       .     S
C30   C28    1.38669       .     S
C28   C30    1.38669       .     S
H31   C30    0.92994       .     S
C30   H31    0.92994       .     S
C32   C30    1.39268       .     S
C30   C32    1.39268       .     S
C33   C32    1.39617       .     S
C32   C33    1.39617       .     S
H34   C33    0.93000       .     S
C33   H34    0.93000       .     S
C35   C33    1.38249       .     S
C33   C35    1.38249       .     S
H36   C35    0.92995       .     S
C35   H36    0.92995       .     S
C38   C37    1.39700       .     S
C37   C38    1.39700       .     S
C45   C37    1.39526       .     S
C37   C45    1.39526       .     S
H39   C38    0.93000       .     S
C38   H39    0.93000       .     S
C40   C38    1.38258       .     S
C38   C40    1.38258       .     S
H41   C40    0.92986       .     S
C40   H41    0.92986       .     S
C42   C40    1.39874       .     S
C40   C42    1.39874       .     S
C43   C42    1.39092   1_556     S
C42   C43    1.39092   1_554     S
H44   C43    0.92992       .     S
C43   H44    0.92992       .     S
C45   C43    1.38458   1_554     S
C43   C45    1.38458   1_556     S
H46   C45    0.92991       .     S
C45   H46    0.92991       .     S
C48   C47    1.40309   1_556     S
C47   C48    1.40309   1_554     S
C55   C47    1.40158       .     S
C47   C55    1.40158       .     S
H49   C48    0.93001       .     S
C48   H49    0.93001       .     S
C50   C48    1.38311       .     S
C48   C50    1.38311       .     S
H51   C50    0.93004       .     S
C50   H51    0.93004       .     S
C52   C50    1.39205       .     S
C50   C52    1.39205       .     S
C53   C52    1.39605   1_554     S
C52   C53    1.39605   1_556     S
C57   C52    1.48159       .     S
C52   C57    1.48159       .     S
H54   C53    0.92994       .     S
C53   H54    0.92994       .     S
C55   C53    1.38687       .     S
C53   C55    1.38687       .     S
H56   C55    0.92998       .     S
C55   H56    0.92998       .     S
H60   C59    0.95973       .     S
C59   H60    0.95973       .     S
H61   C59    0.94312       .     S
C59   H61    0.94312       .     S
H62   C59    0.96264       .     S
C59   H62    0.96264       .     S
H63   C59    0.96004       .     S
C59   H63    0.96004       .     S
O64   C59    1.48558       .     S
C59   O64    1.48558       .     S
O66   C59    1.36805       .     S
C59   O66    1.36805       .     S
H68   C59    0.96586       .     S
C59   H68    0.96586       .     S
H69   C59    0.96056       .     S
C59   H69    0.96056       .     S
H61   H60    0.53564       .     S
H60   H61    0.53564       .     S
H63   H62    0.62204       .     S
H62   H63    0.62204       .     S
H65   O64    0.81997       .     S
O64   H65    0.81997       .     S
O66   O64    1.10626       .     S
O64   O66    1.10626       .     S
H67   O66    0.81995       .     S
O66   H67    0.81995       .     S
