data_I
_chemical_name_common  '/data/user2/wty/HOF/MOFDiff/mofdiff/data/test/273-nku-1000-100k'
_cell_length_a 17.12440
_cell_length_b 19.20510
_cell_length_c 20.00160
_cell_angle_alpha 90.00000
_cell_angle_beta  102.61500
_cell_angle_gamma 90.00000
_space_group_name_H-M_alt      'P 1'


loop_
_space_group_symop_operation_xyz
  'x, y, z' 

loop_
_atom_site_label
_atom_site_fract_x
_atom_site_fract_y
_atom_site_fract_z
_atom_site_type_symbol
H0     0.10719  0.99081  0.64491     H
O1      0.0454   0.9777    0.558     O
O2      0.0901    0.971   0.6173     O
O3      0.0819   0.9971   0.6748     O
C4      0.1204   0.9706   0.7326     C
H5     0.16635  0.94486  0.72629     H
H6     0.08496  0.94003  0.74974     H
H7     0.13726  0.00758  0.76474     H
C8      0.4182   0.0567   0.5466     C
H9     0.38265  0.05594  0.50222     H
H10    0.43014  0.10402  0.56047     H
H11    0.39316  0.03389  0.57914     H
C12     0.5308   0.0524   0.4941     C
H13    0.58727  0.04316  0.50563     H
H14    0.50837  0.03416  0.44937     H
N15     0.4935   0.0197   0.5432     N
H16    0.52658  0.02046  0.58427     H
H17    0.48269  0.97549  0.53153     H
O18     0.5464   0.0934   0.5272     O
H19    0.53999  0.09866  0.56661     H
H20    0.52191  0.10171  0.49442     H
H21    0.54017  0.13526  0.51314     H
O22     0.0156    0.051   0.6587     O
O23     0.0404    0.084   0.6156     O
C24     0.4738   0.2104    0.655     C
H25    0.45479   0.1715   0.6742     H
C26     0.3686   0.2755   0.6902     C
H27    0.35739  0.23084  0.70759     H
H28    0.32268  0.29115  0.65698     H
H29    0.38068   0.3083  0.72718     H
C30     0.4618    0.332   0.6245     C
H31    0.50051  0.35772  0.65715     H
H32    0.41606  0.36091  0.60736     H
H33    0.48511  0.31774  0.58716     H
N34     0.4366   0.2695   0.6581     N
O35     0.5313  0.20203  0.62915     O
loop_
_geom_bond_atom_site_label_1
_geom_bond_atom_site_label_2
_geom_bond_distance
_geom_bond_site_symmetry_2
_ccdc_geom_bond_type
H0    O3     0.82016       .     S
O3    H0     0.82016       .     S
H0    O22    2.01525   1_565     S
O22   H0     2.01525   1_545     S
H19   O35    2.36841       .     S
O35   H19    2.36841       .     S
H0    O2     0.68174       .     S
O2    H0     0.68174       .     S
H0    O3     0.82016       .     S
O3    H0     0.82016       .     S
O1    O2     1.26993       .     S
O2    O1     1.26993       .     S
O2    O3     1.29005       .     S
O3    O2     1.29005       .     S
O3    C4     1.30281       .     S
C4    O3     1.30281       .     S
C4    H5     0.96064       .     S
H5    C4     0.96064       .     S
C4    H6     0.95990       .     S
H6    C4     0.95990       .     S
C4    H7     0.95913   1_565     S
H7    C4     0.95913   1_545     S
C8    H9     0.96059       .     S
H9    C8     0.96059       .     S
C8    H10    0.95911       .     S
H10   C8     0.95911       .     S
C8    H11    0.95983       .     S
H11   C8     0.95983       .     S
C8    N15    1.48681       .     S
N15   C8     1.48681       .     S
C12   H13    0.96041       .     S
H13   C12    0.96041       .     S
C12   H14    0.95947       .     S
H14   C12    0.95947       .     S
C12   N15    1.42859       .     S
N15   C12    1.42859       .     S
C12   O18    1.02588       .     S
O18   C12    1.02588       .     S
C12   H20    0.95940       .     S
H20   C12    0.95940       .     S
N15   H16    0.89031       .     S
H16   N15    0.89031       .     S
N15   H17    0.88926   1_545     S
H17   N15    0.88926   1_565     S
O18   H19    0.82547       .     S
H19   O18    0.82547       .     S
O18   H20    0.71493       .     S
H20   O18    0.71493       .     S
O18   H21    0.85068       .     S
H21   O18    0.85068       .     S
O22   O23    1.21865       .     S
O23   O22    1.21865       .     S
C24   H25    0.93069       .     S
H25   C24    0.93069       .     S
C24   N34    1.30965       .     S
N34   C24    1.30965       .     S
C24   O35    1.21864       .     S
O35   C24    1.21864       .     S
C26   H27    0.96055       .     S
H27   C26    0.96055       .     S
C26   H28    0.96019       .     S
H28   C26    0.96019       .     S
C26   H29    0.95909       .     S
H29   C26    0.95909       .     S
C26   N34    1.45191       .     S
N34   C26    1.45191       .     S
C30   H31    0.95958       .     S
H31   C30    0.95958       .     S
C30   H32    0.96022       .     S
H32   C30    0.96022       .     S
C30   H33    0.96039       .     S
H33   C30    0.96039       .     S
C30   N34    1.48503       .     S
N34   C30    1.48503       .     S
O3    H0     0.82016       .     S
H0    O3     0.82016       .     S
O22   H0     2.01525   1_545     S
H0    O22    2.01525   1_565     S
O35   H19    2.36841       .     S
H19   O35    2.36841       .     S
O2    H0     0.68174       .     S
H0    O2     0.68174       .     S
O3    H0     0.82016       .     S
H0    O3     0.82016       .     S
O2    O1     1.26993       .     S
O1    O2     1.26993       .     S
O3    O2     1.29005       .     S
O2    O3     1.29005       .     S
C4    O3     1.30281       .     S
O3    C4     1.30281       .     S
H5    C4     0.96064       .     S
C4    H5     0.96064       .     S
H6    C4     0.95990       .     S
C4    H6     0.95990       .     S
H7    C4     0.95913   1_545     S
C4    H7     0.95913   1_565     S
H9    C8     0.96059       .     S
C8    H9     0.96059       .     S
H10   C8     0.95911       .     S
C8    H10    0.95911       .     S
H11   C8     0.95983       .     S
C8    H11    0.95983       .     S
N15   C8     1.48681       .     S
C8    N15    1.48681       .     S
H13   C12    0.96041       .     S
C12   H13    0.96041       .     S
H14   C12    0.95947       .     S
C12   H14    0.95947       .     S
N15   C12    1.42859       .     S
C12   N15    1.42859       .     S
O18   C12    1.02588       .     S
C12   O18    1.02588       .     S
H20   C12    0.95940       .     S
C12   H20    0.95940       .     S
H16   N15    0.89031       .     S
N15   H16    0.89031       .     S
H17   N15    0.88926   1_565     S
N15   H17    0.88926   1_545     S
H19   O18    0.82547       .     S
O18   H19    0.82547       .     S
H20   O18    0.71493       .     S
O18   H20    0.71493       .     S
H21   O18    0.85068       .     S
O18   H21    0.85068       .     S
O23   O22    1.21865       .     S
O22   O23    1.21865       .     S
H25   C24    0.93069       .     S
C24   H25    0.93069       .     S
N34   C24    1.30965       .     S
C24   N34    1.30965       .     S
O35   C24    1.21864       .     S
C24   O35    1.21864       .     S
H27   C26    0.96055       .     S
C26   H27    0.96055       .     S
H28   C26    0.96019       .     S
C26   H28    0.96019       .     S
H29   C26    0.95909       .     S
C26   H29    0.95909       .     S
N34   C26    1.45191       .     S
C26   N34    1.45191       .     S
H31   C30    0.95958       .     S
C30   H31    0.95958       .     S
H32   C30    0.96022       .     S
C30   H32    0.96022       .     S
H33   C30    0.96039       .     S
C30   H33    0.96039       .     S
N34   C30    1.48503       .     S
C30   N34    1.48503       .     S
