data_I
_chemical_name_common  '/data/user2/wty/HOF/MOFDiff/mofdiff/data/test/275-cagehof-2_deso'
_cell_length_a 18.37380
_cell_length_b 18.37380
_cell_length_c 11.28110
_cell_angle_alpha 90.00000
_cell_angle_beta  90.00000
_cell_angle_gamma 120.00000
_space_group_name_H-M_alt      'P 1'


loop_
_space_group_symop_operation_xyz
  'x, y, z' 

loop_
_atom_site_label
_atom_site_fract_x
_atom_site_fract_y
_atom_site_fract_z
_atom_site_type_symbol
O0     0.34442  0.92148  0.28402     O
O1     0.40982  0.04117  0.18532     O
O2     0.53317  0.17038  0.29749     O
N3     0.53238  0.16716      0.5     N
C4     0.39317  0.99585  0.28229     C
C5     0.43413  0.04369  0.39207     C
C6     0.40357  0.00365      0.5     C
H7     0.35997  0.94653      0.5     H
C8     0.50001   0.1273  0.39864     C
C9     0.60103  0.25301  0.30722     C
C10    0.58409   0.3186  0.30705     C
H11    0.52808  0.30849  0.30683     H
H12      0.386    0.009    0.139     H
O13    0.07852  0.42294  0.28402     O
O14    0.95883  0.36865  0.18532     O
O15    0.82962  0.36279  0.29749     O
N16    0.83284  0.36522      0.5     N
C17    0.00415  0.39732  0.28229     C
C18    0.95631  0.39044  0.39207     C
C19    0.99635  0.39992      0.5     C
H20    0.05347  0.41344      0.5     H
C21     0.8727  0.37271  0.39864     C
C22    0.74699  0.34802  0.30722     C
C23     0.6814  0.26549  0.30705     C
H24    0.69151  0.21959  0.30683     H
H25      0.991    0.377    0.139     H
O26    0.57706  0.65558  0.28402     O
O27    0.63135  0.59018  0.18532     O
O28    0.63721  0.46683  0.29749     O
N29    0.63478  0.46762      0.5     N
C30    0.60268  0.60683  0.28229     C
C31    0.60956  0.56587  0.39207     C
C32    0.60008  0.59643      0.5     C
H33    0.58656  0.64003      0.5     H
C34    0.62729  0.49999  0.39864     C
C35    0.65198  0.39897  0.30722     C
C36    0.73451  0.41591  0.30705     C
H37    0.78041  0.47192  0.30683     H
H38      0.623    0.614    0.139     H
O39    0.34442  0.92148  0.71598     O
O40    0.40982  0.04117  0.81468     O
O41    0.53317  0.17038  0.70251     O
C42    0.39317  0.99585  0.71771     C
C43    0.43413  0.04369  0.60793     C
C44    0.50001   0.1273  0.60136     C
C45    0.60103  0.25301  0.69278     C
C46    0.58409   0.3186  0.69295     C
H47    0.52808  0.30849  0.69317     H
H48      0.386    0.009    0.861     H
O49    0.07852  0.42294  0.71598     O
O50    0.95883  0.36865  0.81468     O
O51    0.82962  0.36279  0.70251     O
C52    0.00415  0.39732  0.71771     C
C53    0.95631  0.39044  0.60793     C
C54     0.8727  0.37271  0.60136     C
C55    0.74699  0.34802  0.69278     C
C56     0.6814  0.26549  0.69295     C
H57    0.69151  0.21959  0.69317     H
H58      0.991    0.377    0.861     H
O59    0.57706  0.65558  0.71598     O
O60    0.63135  0.59018  0.81468     O
O61    0.63721  0.46683  0.70251     O
C62    0.60268  0.60683  0.71771     C
C63    0.60956  0.56587  0.60793     C
C64    0.62729  0.49999  0.60136     C
C65    0.65198  0.39897  0.69278     C
C66    0.73451  0.41591  0.69295     C
H67    0.78041  0.47192  0.69317     H
H68      0.623    0.614    0.861     H
H69    0.50586  0.20091  0.92213     H
C70     0.5171   0.2281      0.0     C
H71    0.57739  0.25558  0.01697     H
C72     0.4892   0.2932      0.0     C
H73    0.50305  0.32216  0.07768     H
H74    0.50305  0.32216  0.92232     H
H75    0.52094  0.33584  0.06164     H
H76    0.52094  0.33584  0.93836     H
S77    0.37949  0.24884  0.97291     S
O78    0.36186  0.32052      0.0     O
C79      0.337   0.1803   0.0992     C
H80    0.34761  0.13281  0.09105     H
H81    0.36519  0.21156  0.17226     H
C82     0.2437   0.1471   0.1088     C
H83    0.21541  0.11304  0.03874     H
H84    0.23313  0.19427  0.11362     H
H85    0.22195  0.11237  0.18015     H
S86    0.37949  0.24884  0.02709     S
C87      0.337   0.1803   0.9008     C
H88    0.34761  0.13281  0.90895     H
H89    0.36519  0.21156  0.82774     H
C90     0.2437   0.1471   0.8912     C
H91    0.21541  0.11304  0.96126     H
H92    0.23313  0.19427  0.88638     H
H93    0.22195  0.11237  0.81985     H
H94    0.50586  0.20091  0.07787     H
H95    0.48593  0.18568  0.06091     H
H96    0.48593  0.18568  0.93909     H
H97    0.57739  0.25558  0.98303     H
loop_
_geom_bond_atom_site_label_1
_geom_bond_atom_site_label_2
_geom_bond_distance
_geom_bond_site_symmetry_2
_ccdc_geom_bond_type
O0    C4     1.20247       .     S
C4    O0     1.20247       .     S
O1    C4     1.31488   1_545     S
C4    O1     1.31488   1_565     S
O1    H12    0.74517       .     S
H12   O1     0.74517       .     S
O2    C8     1.34817       .     S
C8    O2     1.34817       .     S
O2    C9     1.40666       .     S
C9    O2     1.40666       .     S
N3    C8     1.32741       .     S
C8    N3     1.32741       .     S
N3    C44    1.32741       .     S
C44   N3     1.32741       .     S
C4    C5     1.48702   1_565     S
C5    C4     1.48702   1_545     S
C5    C6     1.38777       .     S
C6    C5     1.38777       .     S
C5    C8     1.40399       .     S
C8    C5     1.40399       .     S
C6    H7     0.94998   1_545     S
H7    C6     0.94998   1_565     S
C6    C43    1.38777       .     S
C43   C6     1.38777       .     S
C9    C10    1.38721       .     S
C10   C9     1.38721       .     S
C9    C23    1.37645       .     S
C23   C9     1.37645       .     S
C10   H11    0.94996       .     S
H11   C10    0.94996       .     S
C10   C35    1.37645       .     S
C35   C10    1.37645       .     S
O13   C17    1.20247       .     S
C17   O13    1.20247       .     S
O14   C17    1.31488   1_655     S
C17   O14    1.31488   1_455     S
O14   H25    0.74517       .     S
H25   O14    0.74517       .     S
O15   C21    1.34817       .     S
C21   O15    1.34817       .     S
O15   C22    1.40666       .     S
C22   O15    1.40666       .     S
N16   C21    1.32741       .     S
C21   N16    1.32741       .     S
N16   C54    1.32741       .     S
C54   N16    1.32741       .     S
C17   C18    1.48702   1_455     S
C18   C17    1.48702   1_655     S
C18   C19    1.38777       .     S
C19   C18    1.38777       .     S
C18   C21    1.40399       .     S
C21   C18    1.40399       .     S
C19   H20    0.94998   1_655     S
H20   C19    0.94998   1_455     S
C19   C53    1.38777       .     S
C53   C19    1.38777       .     S
C22   C23    1.38721       .     S
C23   C22    1.38721       .     S
C22   C36    1.37645       .     S
C36   C22    1.37645       .     S
C23   H24    0.94996       .     S
H24   C23    0.94996       .     S
O26   C30    1.20247       .     S
C30   O26    1.20247       .     S
O27   C30    1.31488       .     S
C30   O27    1.31488       .     S
O27   H38    0.74517       .     S
H38   O27    0.74517       .     S
O28   C34    1.34817       .     S
C34   O28    1.34817       .     S
O28   C35    1.40666       .     S
C35   O28    1.40666       .     S
N29   C34    1.32741       .     S
C34   N29    1.32741       .     S
N29   C64    1.32741       .     S
C64   N29    1.32741       .     S
C30   C31    1.48702       .     S
C31   C30    1.48702       .     S
C31   C32    1.38777       .     S
C32   C31    1.38777       .     S
C31   C34    1.40399       .     S
C34   C31    1.40399       .     S
C32   H33    0.94999       .     S
H33   C32    0.94999       .     S
C32   C63    1.38777       .     S
C63   C32    1.38777       .     S
C35   C36    1.38721       .     S
C36   C35    1.38721       .     S
C36   H37    0.94996       .     S
H37   C36    0.94996       .     S
O39   C42    1.20247       .     S
C42   O39    1.20247       .     S
O40   C42    1.31488   1_545     S
C42   O40    1.31488   1_565     S
O40   H48    0.74517       .     S
H48   O40    0.74517       .     S
O41   C44    1.34817       .     S
C44   O41    1.34817       .     S
O41   C45    1.40666       .     S
C45   O41    1.40666       .     S
C42   C43    1.48702   1_565     S
C43   C42    1.48702   1_545     S
C43   C44    1.40399       .     S
C44   C43    1.40399       .     S
C45   C46    1.38721       .     S
C46   C45    1.38721       .     S
C45   C56    1.37645       .     S
C56   C45    1.37645       .     S
C46   H47    0.94996       .     S
H47   C46    0.94996       .     S
C46   C65    1.37645       .     S
C65   C46    1.37645       .     S
O49   C52    1.20247       .     S
C52   O49    1.20247       .     S
O50   C52    1.31488   1_655     S
C52   O50    1.31488   1_455     S
O50   H58    0.74517       .     S
H58   O50    0.74517       .     S
O51   C54    1.34817       .     S
C54   O51    1.34817       .     S
O51   C55    1.40666       .     S
C55   O51    1.40666       .     S
C52   C53    1.48702   1_455     S
C53   C52    1.48702   1_655     S
C53   C54    1.40399       .     S
C54   C53    1.40399       .     S
C55   C56    1.38721       .     S
C56   C55    1.38721       .     S
C55   C66    1.37645       .     S
C66   C55    1.37645       .     S
C56   H57    0.94996       .     S
H57   C56    0.94996       .     S
O59   C62    1.20247       .     S
C62   O59    1.20247       .     S
O60   C62    1.31488       .     S
C62   O60    1.31488       .     S
O60   H68    0.74517       .     S
H68   O60    0.74517       .     S
O61   C64    1.34817       .     S
C64   O61    1.34817       .     S
O61   C65    1.40666       .     S
C65   O61    1.40666       .     S
C62   C63    1.48702       .     S
C63   C62    1.48702       .     S
C63   C64    1.40399       .     S
C64   C63    1.40399       .     S
C65   C66    1.38721       .     S
C66   C65    1.38721       .     S
C66   H67    0.94996       .     S
H67   C66    0.94996       .     S
H69   C70    0.98018   1_556     S
C70   H69    0.98018   1_554     S
H69   H96    0.38280       .     S
H96   H69    0.38280       .     S
C70   H71    0.97948       .     S
H71   C70    0.97948       .     S
C70   C72    1.51878       .     S
C72   C70    1.51878       .     S
C70   H94    0.98018       .     S
H94   C70    0.98018       .     S
C70   H95    0.98044       .     S
H95   C70    0.98044       .     S
C70   H96    0.98044   1_554     S
H96   C70    0.98044   1_556     S
C70   H97    0.97948   1_554     S
H97   C70    0.97948   1_556     S
H71   H97    0.38288   1_554     S
H97   H71    0.38288   1_556     S
C72   H73    0.99016       .     S
H73   C72    0.99016       .     S
C72   H74    0.99016   1_554     S
H74   C72    0.99016   1_556     S
C72   H75    0.99023       .     S
H75   C72    0.99023       .     S
C72   H76    0.99023   1_554     S
H76   C72    0.99023   1_556     S
C72   S77    1.78273   1_554     S
S77   C72    1.78273   1_556     S
C72   S86    1.78273       .     S
S86   C72    1.78273       .     S
H73   H75    0.34835       .     S
H75   H73    0.34835       .     S
H74   H76    0.34835       .     S
H76   H74    0.34835       .     S
S77   O78    1.53608   1_556     S
O78   S77    1.53608   1_554     S
S77   C79    1.80056   1_556     S
C79   S77    1.80056   1_554     S
S77   S86    0.61121   1_556     S
S86   S77    0.61121   1_554     S
S77   C87    1.36895       .     S
C87   S77    1.36895       .     S
O78   S86    1.53608       .     S
S86   O78    1.53608       .     S
C79   H80    0.98891       .     S
H80   C79    0.98891       .     S
C79   H81    0.98994       .     S
H81   C79    0.98994       .     S
C79   C82    1.50893       .     S
C82   C79    1.50893       .     S
C79   S86    1.36895       .     S
S86   C79    1.36895       .     S
C82   H83    0.98040       .     S
H83   C82    0.98040       .     S
C82   H84    0.97987       .     S
H84   C82    0.97987       .     S
C82   H85    0.97968       .     S
H85   C82    0.97968       .     S
S86   C87    1.80056   1_554     S
C87   S86    1.80056   1_556     S
C87   H88    0.98891       .     S
H88   C87    0.98891       .     S
C87   H89    0.98994       .     S
H89   C87    0.98994       .     S
C87   C90    1.50893       .     S
C90   C87    1.50893       .     S
C90   H91    0.98040       .     S
H91   C90    0.98040       .     S
C90   H92    0.97987       .     S
H92   C90    0.97987       .     S
C90   H93    0.97968       .     S
H93   C90    0.97968       .     S
H94   H95    0.38280       .     S
H95   H94    0.38280       .     S
C4    O0     1.20247       .     S
O0    C4     1.20247       .     S
C4    O1     1.31488   1_565     S
O1    C4     1.31488   1_545     S
H12   O1     0.74517       .     S
O1    H12    0.74517       .     S
C8    O2     1.34817       .     S
O2    C8     1.34817       .     S
C9    O2     1.40666       .     S
O2    C9     1.40666       .     S
C8    N3     1.32741       .     S
N3    C8     1.32741       .     S
C44   N3     1.32741       .     S
N3    C44    1.32741       .     S
C5    C4     1.48702   1_545     S
C4    C5     1.48702   1_565     S
C6    C5     1.38777       .     S
C5    C6     1.38777       .     S
C8    C5     1.40399       .     S
C5    C8     1.40399       .     S
H7    C6     0.94998   1_565     S
C6    H7     0.94998   1_545     S
C43   C6     1.38777       .     S
C6    C43    1.38777       .     S
C10   C9     1.38721       .     S
C9    C10    1.38721       .     S
C23   C9     1.37645       .     S
C9    C23    1.37645       .     S
H11   C10    0.94996       .     S
C10   H11    0.94996       .     S
C35   C10    1.37645       .     S
C10   C35    1.37645       .     S
C17   O13    1.20247       .     S
O13   C17    1.20247       .     S
C17   O14    1.31488   1_455     S
O14   C17    1.31488   1_655     S
H25   O14    0.74517       .     S
O14   H25    0.74517       .     S
C21   O15    1.34817       .     S
O15   C21    1.34817       .     S
C22   O15    1.40666       .     S
O15   C22    1.40666       .     S
C21   N16    1.32741       .     S
N16   C21    1.32741       .     S
C54   N16    1.32741       .     S
N16   C54    1.32741       .     S
C18   C17    1.48702   1_655     S
C17   C18    1.48702   1_455     S
C19   C18    1.38777       .     S
C18   C19    1.38777       .     S
C21   C18    1.40399       .     S
C18   C21    1.40399       .     S
H20   C19    0.94998   1_455     S
C19   H20    0.94998   1_655     S
C53   C19    1.38777       .     S
C19   C53    1.38777       .     S
C23   C22    1.38721       .     S
C22   C23    1.38721       .     S
C36   C22    1.37645       .     S
C22   C36    1.37645       .     S
H24   C23    0.94996       .     S
C23   H24    0.94996       .     S
C30   O26    1.20247       .     S
O26   C30    1.20247       .     S
C30   O27    1.31488       .     S
O27   C30    1.31488       .     S
H38   O27    0.74517       .     S
O27   H38    0.74517       .     S
C34   O28    1.34817       .     S
O28   C34    1.34817       .     S
C35   O28    1.40666       .     S
O28   C35    1.40666       .     S
C34   N29    1.32741       .     S
N29   C34    1.32741       .     S
C64   N29    1.32741       .     S
N29   C64    1.32741       .     S
C31   C30    1.48702       .     S
C30   C31    1.48702       .     S
C32   C31    1.38777       .     S
C31   C32    1.38777       .     S
C34   C31    1.40399       .     S
C31   C34    1.40399       .     S
H33   C32    0.94999       .     S
C32   H33    0.94999       .     S
C63   C32    1.38777       .     S
C32   C63    1.38777       .     S
C36   C35    1.38721       .     S
C35   C36    1.38721       .     S
H37   C36    0.94996       .     S
C36   H37    0.94996       .     S
C42   O39    1.20247       .     S
O39   C42    1.20247       .     S
C42   O40    1.31488   1_565     S
O40   C42    1.31488   1_545     S
H48   O40    0.74517       .     S
O40   H48    0.74517       .     S
C44   O41    1.34817       .     S
O41   C44    1.34817       .     S
C45   O41    1.40666       .     S
O41   C45    1.40666       .     S
C43   C42    1.48702   1_545     S
C42   C43    1.48702   1_565     S
C44   C43    1.40399       .     S
C43   C44    1.40399       .     S
C46   C45    1.38721       .     S
C45   C46    1.38721       .     S
C56   C45    1.37645       .     S
C45   C56    1.37645       .     S
H47   C46    0.94996       .     S
C46   H47    0.94996       .     S
C65   C46    1.37645       .     S
C46   C65    1.37645       .     S
C52   O49    1.20247       .     S
O49   C52    1.20247       .     S
C52   O50    1.31488   1_455     S
O50   C52    1.31488   1_655     S
H58   O50    0.74517       .     S
O50   H58    0.74517       .     S
C54   O51    1.34817       .     S
O51   C54    1.34817       .     S
C55   O51    1.40666       .     S
O51   C55    1.40666       .     S
C53   C52    1.48702   1_655     S
C52   C53    1.48702   1_455     S
C54   C53    1.40399       .     S
C53   C54    1.40399       .     S
C56   C55    1.38721       .     S
C55   C56    1.38721       .     S
C66   C55    1.37645       .     S
C55   C66    1.37645       .     S
H57   C56    0.94996       .     S
C56   H57    0.94996       .     S
C62   O59    1.20247       .     S
O59   C62    1.20247       .     S
C62   O60    1.31488       .     S
O60   C62    1.31488       .     S
H68   O60    0.74517       .     S
O60   H68    0.74517       .     S
C64   O61    1.34817       .     S
O61   C64    1.34817       .     S
C65   O61    1.40666       .     S
O61   C65    1.40666       .     S
C63   C62    1.48702       .     S
C62   C63    1.48702       .     S
C64   C63    1.40399       .     S
C63   C64    1.40399       .     S
C66   C65    1.38721       .     S
C65   C66    1.38721       .     S
H67   C66    0.94996       .     S
C66   H67    0.94996       .     S
C70   H69    0.98018   1_554     S
H69   C70    0.98018   1_556     S
H96   H69    0.38280       .     S
H69   H96    0.38280       .     S
H71   C70    0.97948       .     S
C70   H71    0.97948       .     S
C72   C70    1.51878       .     S
C70   C72    1.51878       .     S
H94   C70    0.98018       .     S
C70   H94    0.98018       .     S
H95   C70    0.98044       .     S
C70   H95    0.98044       .     S
H96   C70    0.98044   1_556     S
C70   H96    0.98044   1_554     S
H97   C70    0.97948   1_556     S
C70   H97    0.97948   1_554     S
H97   H71    0.38288   1_556     S
H71   H97    0.38288   1_554     S
H73   C72    0.99016       .     S
C72   H73    0.99016       .     S
H74   C72    0.99016   1_556     S
C72   H74    0.99016   1_554     S
H75   C72    0.99023       .     S
C72   H75    0.99023       .     S
H76   C72    0.99023   1_556     S
C72   H76    0.99023   1_554     S
S77   C72    1.78273   1_556     S
C72   S77    1.78273   1_554     S
S86   C72    1.78273       .     S
C72   S86    1.78273       .     S
H75   H73    0.34835       .     S
H73   H75    0.34835       .     S
H76   H74    0.34835       .     S
H74   H76    0.34835       .     S
O78   S77    1.53608   1_554     S
S77   O78    1.53608   1_556     S
C79   S77    1.80056   1_554     S
S77   C79    1.80056   1_556     S
S86   S77    0.61121   1_554     S
S77   S86    0.61121   1_556     S
C87   S77    1.36895       .     S
S77   C87    1.36895       .     S
S86   O78    1.53608       .     S
O78   S86    1.53608       .     S
H80   C79    0.98891       .     S
C79   H80    0.98891       .     S
H81   C79    0.98994       .     S
C79   H81    0.98994       .     S
C82   C79    1.50893       .     S
C79   C82    1.50893       .     S
S86   C79    1.36895       .     S
C79   S86    1.36895       .     S
H83   C82    0.98040       .     S
C82   H83    0.98040       .     S
H84   C82    0.97987       .     S
C82   H84    0.97987       .     S
H85   C82    0.97968       .     S
C82   H85    0.97968       .     S
C87   S86    1.80056   1_556     S
S86   C87    1.80056   1_554     S
H88   C87    0.98891       .     S
C87   H88    0.98891       .     S
H89   C87    0.98994       .     S
C87   H89    0.98994       .     S
C90   C87    1.50893       .     S
C87   C90    1.50893       .     S
H91   C90    0.98040       .     S
C90   H91    0.98040       .     S
H92   C90    0.97987       .     S
C90   H92    0.97987       .     S
H93   C90    0.97968       .     S
C90   H93    0.97968       .     S
H95   H94    0.38280       .     S
H94   H95    0.38280       .     S
