data_I
_chemical_name_common  '/data/user2/wty/HOF/MOFDiff/mofdiff/data/test/275-cagehof-2_dma'
_cell_length_a 18.82650
_cell_length_b 18.82650
_cell_length_c 11.19350
_cell_angle_alpha 90.00000
_cell_angle_beta  90.00000
_cell_angle_gamma 120.00000
_space_group_name_H-M_alt      'P 1'


loop_
_space_group_symop_operation_xyz
  'x, y, z' 

loop_
_atom_site_label
_atom_site_fract_x
_atom_site_fract_y
_atom_site_fract_z
_atom_site_type_symbol
O0      0.6347    0.072   0.2181     O
O1      0.5826  0.95476   0.3162     O
H2       0.607    0.982     0.39     H
O3     0.46558  0.82434   0.2041     O
N4      0.4652    0.828      0.0     N
C5      0.5945   0.9982   0.2184     C
C6      0.5584   0.9503   0.1083     C
C7      0.5861     0.99      0.0     C
H8     0.62578  0.04684      0.0     H
C9      0.4963   0.8675   0.1012     C
C10     0.3987   0.7443   0.1945     C
C11     0.3205   0.7328   0.1948     C
H12    0.31185  0.77841  0.19515     H
O13      0.928   0.5627   0.2181     O
O14    0.04524  0.62784   0.3162     O
H15      0.018    0.625     0.39     H
O16    0.17566  0.64124   0.2041     O
N17      0.172   0.6372      0.0     N
C18     0.0018   0.5963   0.2184     C
C19     0.0497   0.6081   0.1083     C
C20       0.01   0.5961      0.0     C
H21    0.95316  0.57894      0.0     H
C22     0.1325   0.6288   0.1012     C
C23     0.2557   0.6544   0.1945     C
C24     0.2672   0.5877   0.1948     C
H25    0.22159  0.53344  0.19515     H
O26     0.4373   0.3653   0.2181     O
O27    0.37216   0.4174   0.3162     O
H28      0.375    0.393     0.39     H
O29    0.35876  0.53442   0.2041     O
N30     0.3628   0.5348      0.0     N
C31     0.4037   0.4055   0.2184     C
C32     0.3919   0.4416   0.1083     C
C33     0.4039   0.4139      0.0     C
H34    0.42106  0.37422      0.0     H
C35     0.3712   0.5037   0.1012     C
C36     0.3456   0.6013   0.1945     C
C37     0.4123   0.6795   0.1948     C
H38    0.46656  0.68815  0.19515     H
O39     0.6347    0.072   0.7819     O
O40     0.5826  0.95476   0.6838     O
H41      0.607    0.982     0.61     H
O42    0.46558  0.82434   0.7959     O
C43     0.5945   0.9982   0.7816     C
C44     0.5584   0.9503   0.8917     C
C45     0.4963   0.8675   0.8988     C
C46     0.3987   0.7443   0.8055     C
C47     0.3205   0.7328   0.8052     C
H48    0.31185  0.77841  0.80485     H
O49      0.928   0.5627   0.7819     O
O50    0.04524  0.62784   0.6838     O
H51      0.018    0.625     0.61     H
O52    0.17566  0.64124   0.7959     O
C53     0.0018   0.5963   0.7816     C
C54     0.0497   0.6081   0.8917     C
C55     0.1325   0.6288   0.8988     C
C56     0.2557   0.6544   0.8055     C
C57     0.2672   0.5877   0.8052     C
H58     0.2216  0.53344  0.80485     H
O59     0.4373   0.3653   0.7819     O
O60    0.37216   0.4174   0.6838     O
H61      0.375    0.393     0.61     H
O62    0.35876  0.53442   0.7959     O
C63     0.4037   0.4055   0.7816     C
C64     0.3919   0.4416   0.8917     C
C65     0.3712   0.5037   0.8988     C
C66     0.3456   0.6013   0.8055     C
C67     0.4123   0.6795   0.8052     C
H68    0.46656  0.68815  0.80485     H
H69    0.47147  0.56453  0.48158     H
C70     0.4742   0.6167      0.5     C
H71    0.47147  0.56453  0.51842     H
O72     0.6179   0.6634      0.5     O
N73     0.5744   0.7537      0.5     N
C74     0.5605   0.6832      0.5     C
C75     0.6626   0.8206      0.5     C
H76    0.66885  0.86627  0.54959     H
H77    0.66885  0.86627  0.45041     H
H78    0.69677  0.79938  0.53235     H
H79    0.69677  0.79938  0.46765     H
H80    0.67987  0.83986  0.58194     H
H81    0.67987  0.83986  0.41806     H
C82      0.512   0.7801      0.5     C
H83    0.45747  0.73246  0.51365     H
H84    0.52456  0.82046  0.43632     H
H85    0.51272  0.80493  0.42267     H
H86    0.45747  0.73246  0.48635     H
H87    0.52456  0.82046  0.56368     H
H88    0.51272  0.80493  0.57732     H
H89    0.45007  0.61328  0.57889     H
H90    0.44355  0.62813  0.56047     H
H91    0.44355  0.62813  0.43952     H
H92    0.45007  0.61328  0.42111     H
loop_
_geom_bond_atom_site_label_1
_geom_bond_atom_site_label_2
_geom_bond_distance
_geom_bond_site_symmetry_2
_ccdc_geom_bond_type
O0    C5     1.20486   1_545     S
C5    O0     1.20486   1_565     S
O1    H2     0.95961       .     S
H2    O1     0.95961       .     S
O1    C5     1.31690       .     S
C5    O1     1.31690       .     S
O3    C9     1.36068       .     S
C9    O3     1.36068       .     S
O3    C10    1.40366       .     S
C10   O3     1.40366       .     S
N4    C9     1.32046       .     S
C9    N4     1.32046       .     S
N4    C45    1.32046   1_554     S
C45   N4     1.32046   1_556     S
C5    C6     1.47684       .     S
C6    C5     1.47684       .     S
C6    C7     1.38216       .     S
C7    C6     1.38216       .     S
C6    C9     1.40736       .     S
C9    C6     1.40736       .     S
C7    H8     0.95067   1_565     S
H8    C7     0.95067   1_545     S
C7    C44    1.38216   1_554     S
C44   C7     1.38216   1_556     S
C10   C11    1.37681       .     S
C11   C10    1.37681       .     S
C10   C37    1.36610       .     S
C37   C10    1.36610       .     S
C11   H12    0.95063       .     S
H12   C11    0.95063       .     S
C11   C23    1.36610       .     S
C23   C11    1.36610       .     S
O13   C18    1.20486   1_655     S
C18   O13    1.20486   1_455     S
O14   H15    0.95961       .     S
H15   O14    0.95961       .     S
O14   C18    1.31690       .     S
C18   O14    1.31690       .     S
O16   C22    1.36068       .     S
C22   O16    1.36068       .     S
O16   C23    1.40366       .     S
C23   O16    1.40366       .     S
N17   C22    1.32046       .     S
C22   N17    1.32046       .     S
N17   C55    1.32046   1_554     S
C55   N17    1.32046   1_556     S
C18   C19    1.47684       .     S
C19   C18    1.47684       .     S
C19   C20    1.38216       .     S
C20   C19    1.38216       .     S
C19   C22    1.40736       .     S
C22   C19    1.40736       .     S
C20   H21    0.95067   1_455     S
H21   C20    0.95067   1_655     S
C20   C54    1.38216   1_554     S
C54   C20    1.38216   1_556     S
C23   C24    1.37681       .     S
C24   C23    1.37681       .     S
C24   H25    0.95063       .     S
H25   C24    0.95063       .     S
C24   C36    1.36610       .     S
C36   C24    1.36610       .     S
O26   C31    1.20486       .     S
C31   O26    1.20486       .     S
O27   H28    0.95961       .     S
H28   O27    0.95961       .     S
O27   C31    1.31690       .     S
C31   O27    1.31690       .     S
O29   C35    1.36068       .     S
C35   O29    1.36068       .     S
O29   C36    1.40366       .     S
C36   O29    1.40366       .     S
N30   C35    1.32046       .     S
C35   N30    1.32046       .     S
N30   C65    1.32046   1_554     S
C65   N30    1.32046   1_556     S
C31   C32    1.47684       .     S
C32   C31    1.47684       .     S
C32   C33    1.38216       .     S
C33   C32    1.38216       .     S
C32   C35    1.40736       .     S
C35   C32    1.40736       .     S
C33   H34    0.95067       .     S
H34   C33    0.95067       .     S
C33   C64    1.38216   1_554     S
C64   C33    1.38216   1_556     S
C36   C37    1.37681       .     S
C37   C36    1.37681       .     S
C37   H38    0.95063       .     S
H38   C37    0.95063       .     S
O39   C43    1.20486   1_545     S
C43   O39    1.20486   1_565     S
O40   H41    0.95961       .     S
H41   O40    0.95961       .     S
O40   C43    1.31690       .     S
C43   O40    1.31690       .     S
O42   C45    1.36068       .     S
C45   O42    1.36068       .     S
O42   C46    1.40366       .     S
C46   O42    1.40366       .     S
C43   C44    1.47684       .     S
C44   C43    1.47684       .     S
C44   C45    1.40736       .     S
C45   C44    1.40736       .     S
C46   C47    1.37681       .     S
C47   C46    1.37681       .     S
C46   C67    1.36610       .     S
C67   C46    1.36610       .     S
C47   H48    0.95063       .     S
H48   C47    0.95063       .     S
C47   C56    1.36610       .     S
C56   C47    1.36610       .     S
O49   C53    1.20486   1_655     S
C53   O49    1.20486   1_455     S
O50   H51    0.95961       .     S
H51   O50    0.95961       .     S
O50   C53    1.31690       .     S
C53   O50    1.31690       .     S
O52   C55    1.36068       .     S
C55   O52    1.36068       .     S
O52   C56    1.40366       .     S
C56   O52    1.40366       .     S
C53   C54    1.47684       .     S
C54   C53    1.47684       .     S
C54   C55    1.40736       .     S
C55   C54    1.40736       .     S
C56   C57    1.37681       .     S
C57   C56    1.37681       .     S
C57   H58    0.95056       .     S
H58   C57    0.95056       .     S
C57   C66    1.36610       .     S
C66   C57    1.36610       .     S
O59   C63    1.20486       .     S
C63   O59    1.20486       .     S
O60   H61    0.95961       .     S
H61   O60    0.95961       .     S
O60   C63    1.31690       .     S
C63   O60    1.31690       .     S
O62   C65    1.36068       .     S
C65   O62    1.36068       .     S
O62   C66    1.40366       .     S
C66   O62    1.40366       .     S
C63   C64    1.47684       .     S
C64   C63    1.47684       .     S
C64   C65    1.40736       .     S
C65   C64    1.40736       .     S
C66   C67    1.37681       .     S
C67   C66    1.37681       .     S
C67   H68    0.95063       .     S
H68   C67    0.95063       .     S
H69   C70    0.97946       .     S
C70   H69    0.97946       .     S
H69   H71    0.41237       .     S
H71   H69    0.41237       .     S
C70   H71    0.97946       .     S
H71   C70    0.97946       .     S
C70   C74    1.47413       .     S
C74   C70    1.47413       .     S
C70   H89    0.98034       .     S
H89   C70    0.98034       .     S
C70   H90    0.98061       .     S
H90   C70    0.98061       .     S
C70   H91    0.98069       .     S
H91   C70    0.98069       .     S
C70   H92    0.98033       .     S
H92   C70    0.98033       .     S
O72   C74    1.30750       .     S
C74   O72    1.30750       .     S
N73   C74    1.21770       .     S
C74   N73    1.21770       .     S
N73   C75    1.50073       .     S
C75   N73    1.50073       .     S
N73   C82    1.48695       .     S
C82   N73    1.48695       .     S
C75   H76    0.97983       .     S
H76   C75    0.97983       .     S
C75   H77    0.97983       .     S
H77   C75    0.97983       .     S
C75   H78    0.98059       .     S
H78   C75    0.98059       .     S
C75   H79    0.98059       .     S
H79   C75    0.98059       .     S
C75   H80    0.98007       .     S
H80   C75    0.98007       .     S
C75   H81    0.98007       .     S
H81   C75    0.98007       .     S
C82   H83    0.98027       .     S
H83   C82    0.98027       .     S
C82   H84    0.98065       .     S
H84   C82    0.98065       .     S
C82   H85    0.98062       .     S
H85   C82    0.98062       .     S
C82   H86    0.98027       .     S
H86   C82    0.98027       .     S
C82   H87    0.98065       .     S
H87   C82    0.98065       .     S
C82   H88    0.98052       .     S
H88   C82    0.98052       .     S
H83   H86    0.30558       .     S
H86   H83    0.30558       .     S
H84   H85    0.30552       .     S
H85   H84    0.30552       .     S
H87   H88    0.30547       .     S
H88   H87    0.30547       .     S
H89   H90    0.41238       .     S
H90   H89    0.41238       .     S
H91   H92    0.41233       .     S
H92   H91    0.41233       .     S
C5    O0     1.20486   1_565     S
O0    C5     1.20486   1_545     S
H2    O1     0.95961       .     S
O1    H2     0.95961       .     S
C5    O1     1.31690       .     S
O1    C5     1.31690       .     S
C9    O3     1.36068       .     S
O3    C9     1.36068       .     S
C10   O3     1.40366       .     S
O3    C10    1.40366       .     S
C9    N4     1.32046       .     S
N4    C9     1.32046       .     S
C45   N4     1.32046   1_556     S
N4    C45    1.32046   1_554     S
C6    C5     1.47684       .     S
C5    C6     1.47684       .     S
C7    C6     1.38216       .     S
C6    C7     1.38216       .     S
C9    C6     1.40736       .     S
C6    C9     1.40736       .     S
H8    C7     0.95067   1_545     S
C7    H8     0.95067   1_565     S
C44   C7     1.38216   1_556     S
C7    C44    1.38216   1_554     S
C11   C10    1.37681       .     S
C10   C11    1.37681       .     S
C37   C10    1.36610       .     S
C10   C37    1.36610       .     S
H12   C11    0.95063       .     S
C11   H12    0.95063       .     S
C23   C11    1.36610       .     S
C11   C23    1.36610       .     S
C18   O13    1.20486   1_455     S
O13   C18    1.20486   1_655     S
H15   O14    0.95961       .     S
O14   H15    0.95961       .     S
C18   O14    1.31690       .     S
O14   C18    1.31690       .     S
C22   O16    1.36068       .     S
O16   C22    1.36068       .     S
C23   O16    1.40366       .     S
O16   C23    1.40366       .     S
C22   N17    1.32046       .     S
N17   C22    1.32046       .     S
C55   N17    1.32046   1_556     S
N17   C55    1.32046   1_554     S
C19   C18    1.47684       .     S
C18   C19    1.47684       .     S
C20   C19    1.38216       .     S
C19   C20    1.38216       .     S
C22   C19    1.40736       .     S
C19   C22    1.40736       .     S
H21   C20    0.95067   1_655     S
C20   H21    0.95067   1_455     S
C54   C20    1.38216   1_556     S
C20   C54    1.38216   1_554     S
C24   C23    1.37681       .     S
C23   C24    1.37681       .     S
H25   C24    0.95063       .     S
C24   H25    0.95063       .     S
C36   C24    1.36610       .     S
C24   C36    1.36610       .     S
C31   O26    1.20486       .     S
O26   C31    1.20486       .     S
H28   O27    0.95961       .     S
O27   H28    0.95961       .     S
C31   O27    1.31690       .     S
O27   C31    1.31690       .     S
C35   O29    1.36068       .     S
O29   C35    1.36068       .     S
C36   O29    1.40366       .     S
O29   C36    1.40366       .     S
C35   N30    1.32046       .     S
N30   C35    1.32046       .     S
C65   N30    1.32046   1_556     S
N30   C65    1.32046   1_554     S
C32   C31    1.47684       .     S
C31   C32    1.47684       .     S
C33   C32    1.38216       .     S
C32   C33    1.38216       .     S
C35   C32    1.40736       .     S
C32   C35    1.40736       .     S
H34   C33    0.95067       .     S
C33   H34    0.95067       .     S
C64   C33    1.38216   1_556     S
C33   C64    1.38216   1_554     S
C37   C36    1.37681       .     S
C36   C37    1.37681       .     S
H38   C37    0.95063       .     S
C37   H38    0.95063       .     S
C43   O39    1.20486   1_565     S
O39   C43    1.20486   1_545     S
H41   O40    0.95961       .     S
O40   H41    0.95961       .     S
C43   O40    1.31690       .     S
O40   C43    1.31690       .     S
C45   O42    1.36068       .     S
O42   C45    1.36068       .     S
C46   O42    1.40366       .     S
O42   C46    1.40366       .     S
C44   C43    1.47684       .     S
C43   C44    1.47684       .     S
C45   C44    1.40736       .     S
C44   C45    1.40736       .     S
C47   C46    1.37681       .     S
C46   C47    1.37681       .     S
C67   C46    1.36610       .     S
C46   C67    1.36610       .     S
H48   C47    0.95063       .     S
C47   H48    0.95063       .     S
C56   C47    1.36610       .     S
C47   C56    1.36610       .     S
C53   O49    1.20486   1_455     S
O49   C53    1.20486   1_655     S
H51   O50    0.95961       .     S
O50   H51    0.95961       .     S
C53   O50    1.31690       .     S
O50   C53    1.31690       .     S
C55   O52    1.36068       .     S
O52   C55    1.36068       .     S
C56   O52    1.40366       .     S
O52   C56    1.40366       .     S
C54   C53    1.47684       .     S
C53   C54    1.47684       .     S
C55   C54    1.40736       .     S
C54   C55    1.40736       .     S
C57   C56    1.37681       .     S
C56   C57    1.37681       .     S
H58   C57    0.95056       .     S
C57   H58    0.95056       .     S
C66   C57    1.36610       .     S
C57   C66    1.36610       .     S
C63   O59    1.20486       .     S
O59   C63    1.20486       .     S
H61   O60    0.95961       .     S
O60   H61    0.95961       .     S
C63   O60    1.31690       .     S
O60   C63    1.31690       .     S
C65   O62    1.36068       .     S
O62   C65    1.36068       .     S
C66   O62    1.40366       .     S
O62   C66    1.40366       .     S
C64   C63    1.47684       .     S
C63   C64    1.47684       .     S
C65   C64    1.40736       .     S
C64   C65    1.40736       .     S
C67   C66    1.37681       .     S
C66   C67    1.37681       .     S
H68   C67    0.95063       .     S
C67   H68    0.95063       .     S
C70   H69    0.97946       .     S
H69   C70    0.97946       .     S
H71   H69    0.41237       .     S
H69   H71    0.41237       .     S
H71   C70    0.97946       .     S
C70   H71    0.97946       .     S
C74   C70    1.47413       .     S
C70   C74    1.47413       .     S
H89   C70    0.98034       .     S
C70   H89    0.98034       .     S
H90   C70    0.98061       .     S
C70   H90    0.98061       .     S
H91   C70    0.98069       .     S
C70   H91    0.98069       .     S
H92   C70    0.98033       .     S
C70   H92    0.98033       .     S
C74   O72    1.30750       .     S
O72   C74    1.30750       .     S
C74   N73    1.21770       .     S
N73   C74    1.21770       .     S
C75   N73    1.50073       .     S
N73   C75    1.50073       .     S
C82   N73    1.48695       .     S
N73   C82    1.48695       .     S
H76   C75    0.97983       .     S
C75   H76    0.97983       .     S
H77   C75    0.97983       .     S
C75   H77    0.97983       .     S
H78   C75    0.98059       .     S
C75   H78    0.98059       .     S
H79   C75    0.98059       .     S
C75   H79    0.98059       .     S
H80   C75    0.98007       .     S
C75   H80    0.98007       .     S
H81   C75    0.98007       .     S
C75   H81    0.98007       .     S
H83   C82    0.98027       .     S
C82   H83    0.98027       .     S
H84   C82    0.98065       .     S
C82   H84    0.98065       .     S
H85   C82    0.98062       .     S
C82   H85    0.98062       .     S
H86   C82    0.98027       .     S
C82   H86    0.98027       .     S
H87   C82    0.98065       .     S
C82   H87    0.98065       .     S
H88   C82    0.98052       .     S
C82   H88    0.98052       .     S
H86   H83    0.30558       .     S
H83   H86    0.30558       .     S
H85   H84    0.30552       .     S
H84   H85    0.30552       .     S
H88   H87    0.30547       .     S
H87   H88    0.30547       .     S
H90   H89    0.41238       .     S
H89   H90    0.41238       .     S
H92   H91    0.41233       .     S
H91   H92    0.41233       .     S
