data_I
_chemical_name_common  '/data/user2/wty/HOF/MOFDiff/mofdiff/data/test/275-cage-6-cooh_nmp_solvate'
_cell_length_a 18.52710
_cell_length_b 18.52710
_cell_length_c 11.32560
_cell_angle_alpha 90.00000
_cell_angle_beta  90.00000
_cell_angle_gamma 120.00000
_space_group_name_H-M_alt      'P 1'


loop_
_space_group_symop_operation_xyz
  'x, y, z' 

loop_
_atom_site_label
_atom_site_fract_x
_atom_site_fract_y
_atom_site_fract_z
_atom_site_type_symbol
O0     0.63617  0.46485  0.20151     O
O1       0.576  0.65205    0.215     O
O2     0.61212  0.57347  0.31519     O
H3      0.6115  0.60239  0.37189     H
N4     0.63355  0.46597      0.0     N
C5     0.73322  0.41542  0.19076     C
H6     0.77845  0.47112  0.19058     H
C7     0.65177  0.39827  0.19089     C
C8     0.62524  0.49722  0.10048     C
C9     0.60666  0.56192  0.10746     C
C10    0.59706  0.59179      0.0     C
H11    0.58325  0.63475      0.0     H
C12    0.59641  0.60016  0.21676     C
O13    0.53515  0.17132  0.20151     O
O14    0.34795  0.92395    0.215     O
O15    0.42653  0.03865  0.31519     O
H16    0.39761  0.00911  0.37189     H
N17    0.53403  0.16758      0.0     N
C18    0.58458   0.3178  0.19076     C
H19    0.52888  0.30733  0.19058     H
C20    0.60173   0.2535  0.19089     C
C21    0.50278  0.12802  0.10048     C
C22    0.43808  0.04474  0.10746     C
C23    0.40821  0.00527      0.0     C
H24    0.36525  0.94851      0.0     H
C25    0.39984  0.99625  0.21676     C
O26    0.82868  0.36383  0.20151     O
O27    0.07605    0.424    0.215     O
O28    0.96135  0.38788  0.31519     O
H29    0.99089  0.38849  0.37189     H
N30    0.83242  0.36645      0.0     N
C31     0.6822  0.26678  0.19076     C
H32    0.69267  0.22155  0.19058     H
C33     0.7465  0.34823  0.19089     C
C34    0.87198  0.37476  0.10048     C
C35    0.95526  0.39334  0.10746     C
C36    0.99473  0.40294      0.0     C
H37    0.05149  0.41675      0.0     H
C38    0.00375  0.40359  0.21676     C
O39    0.63617  0.46485  0.79849     O
O40      0.576  0.65205    0.785     O
O41    0.61212  0.57347  0.68481     O
H42     0.6115  0.60239  0.62811     H
C43    0.73322  0.41542  0.80924     C
H44    0.77845  0.47112  0.80942     H
C45    0.65177  0.39827  0.80911     C
C46    0.62524  0.49722  0.89952     C
C47    0.60666  0.56192  0.89254     C
C48    0.59641  0.60016  0.78324     C
O49    0.82868  0.36383  0.79849     O
O50    0.07605    0.424    0.785     O
O51    0.96135  0.38788  0.68481     O
H52    0.99089  0.38849  0.62811     H
C53     0.6822  0.26678  0.80924     C
H54    0.69267  0.22155  0.80942     H
C55     0.7465  0.34823  0.80911     C
C56    0.87198  0.37476  0.89952     C
C57    0.95526  0.39334  0.89254     C
C58    0.00375  0.40359  0.78324     C
O59    0.53515  0.17132  0.79849     O
O60    0.34795  0.92395    0.785     O
O61    0.42653  0.03865  0.68481     O
H62    0.39761  0.00911  0.62811     H
C63    0.58458   0.3178  0.80924     C
H64    0.52888  0.30733  0.80942     H
C65    0.60173   0.2535  0.80911     C
C66    0.50278  0.12802  0.89952     C
C67    0.43808  0.04474  0.89254     C
C68    0.39984  0.99625  0.78324     C
loop_
_geom_bond_atom_site_label_1
_geom_bond_atom_site_label_2
_geom_bond_distance
_geom_bond_site_symmetry_2
_ccdc_geom_bond_type
O0    C7     1.40575       .     S
C7    O0     1.40575       .     S
O0    C8     1.35328       .     S
C8    O0     1.35328       .     S
O1    C12    1.19631       .     S
C12   O1     1.19631       .     S
O2    H3     0.84009       .     S
H3    O2     0.84009       .     S
O2    C12    1.30992       .     S
C12   O2     1.30992       .     S
N4    C8     1.32026       .     S
C8    N4     1.32026       .     S
N4    C46    1.32026   1_554     S
C46   N4     1.32026   1_556     S
C5    H6     0.94994       .     S
H6    C5     0.94994       .     S
C5    C7     1.37792       .     S
C7    C5     1.37792       .     S
C5    C33    1.38435       .     S
C33   C5     1.38435       .     S
C7    C18    1.38435       .     S
C18   C7     1.38435       .     S
C8    C9     1.40509       .     S
C9    C8     1.40509       .     S
C9    C10    1.38475       .     S
C10   C9     1.38475       .     S
C9    C12    1.48489       .     S
C12   C9     1.48489       .     S
C10   H11    0.95005       .     S
H11   C10    0.95005       .     S
C10   C47    1.38475   1_554     S
C47   C10    1.38475   1_556     S
O13   C20    1.40575       .     S
C20   O13    1.40575       .     S
O13   C21    1.35328       .     S
C21   O13    1.35328       .     S
O14   C25    1.19631       .     S
C25   O14    1.19631       .     S
O15   H16    0.84009       .     S
H16   O15    0.84009       .     S
O15   C25    1.30992   1_545     S
C25   O15    1.30992   1_565     S
N17   C21    1.32026       .     S
C21   N17    1.32026       .     S
N17   C66    1.32026   1_554     S
C66   N17    1.32026   1_556     S
C18   H19    0.94994       .     S
H19   C18    0.94994       .     S
C18   C20    1.37792       .     S
C20   C18    1.37792       .     S
C20   C31    1.38435       .     S
C31   C20    1.38435       .     S
C21   C22    1.40509       .     S
C22   C21    1.40509       .     S
C22   C23    1.38475       .     S
C23   C22    1.38475       .     S
C22   C25    1.48489   1_545     S
C25   C22    1.48489   1_565     S
C23   H24    0.94993   1_545     S
H24   C23    0.94993   1_565     S
C23   C67    1.38475   1_554     S
C67   C23    1.38475   1_556     S
O26   C33    1.40575       .     S
C33   O26    1.40575       .     S
O26   C34    1.35328       .     S
C34   O26    1.35328       .     S
O27   C38    1.19631       .     S
C38   O27    1.19631       .     S
O28   H29    0.84014       .     S
H29   O28    0.84014       .     S
O28   C38    1.30992   1_655     S
C38   O28    1.30992   1_455     S
N30   C34    1.32026       .     S
C34   N30    1.32026       .     S
N30   C56    1.32026   1_554     S
C56   N30    1.32026   1_556     S
C31   H32    0.94994       .     S
H32   C31    0.94994       .     S
C31   C33    1.37792       .     S
C33   C31    1.37792       .     S
C34   C35    1.40509       .     S
C35   C34    1.40509       .     S
C35   C36    1.38475       .     S
C36   C35    1.38475       .     S
C35   C38    1.48489   1_655     S
C38   C35    1.48489   1_455     S
C36   H37    0.94987   1_655     S
H37   C36    0.94987   1_455     S
C36   C57    1.38475   1_554     S
C57   C36    1.38475   1_556     S
O39   C45    1.40575       .     S
C45   O39    1.40575       .     S
O39   C46    1.35328       .     S
C46   O39    1.35328       .     S
O40   C48    1.19631       .     S
C48   O40    1.19631       .     S
O41   H42    0.84009       .     S
H42   O41    0.84009       .     S
O41   C48    1.30992       .     S
C48   O41    1.30992       .     S
C43   H44    0.94994       .     S
H44   C43    0.94994       .     S
C43   C45    1.37792       .     S
C45   C43    1.37792       .     S
C43   C55    1.38435       .     S
C55   C43    1.38435       .     S
C45   C63    1.38435       .     S
C63   C45    1.38435       .     S
C46   C47    1.40509       .     S
C47   C46    1.40509       .     S
C47   C48    1.48489       .     S
C48   C47    1.48489       .     S
O49   C55    1.40575       .     S
C55   O49    1.40575       .     S
O49   C56    1.35328       .     S
C56   O49    1.35328       .     S
O50   C58    1.19631       .     S
C58   O50    1.19631       .     S
O51   H52    0.84014       .     S
H52   O51    0.84014       .     S
O51   C58    1.30992   1_655     S
C58   O51    1.30992   1_455     S
C53   H54    0.94994       .     S
H54   C53    0.94994       .     S
C53   C55    1.37792       .     S
C55   C53    1.37792       .     S
C53   C65    1.38435       .     S
C65   C53    1.38435       .     S
C56   C57    1.40509       .     S
C57   C56    1.40509       .     S
C57   C58    1.48489   1_655     S
C58   C57    1.48489   1_455     S
O59   C65    1.40575       .     S
C65   O59    1.40575       .     S
O59   C66    1.35328       .     S
C66   O59    1.35328       .     S
O60   C68    1.19631       .     S
C68   O60    1.19631       .     S
O61   H62    0.84009       .     S
H62   O61    0.84009       .     S
O61   C68    1.30992   1_545     S
C68   O61    1.30992   1_565     S
C63   H64    0.94994       .     S
H64   C63    0.94994       .     S
C63   C65    1.37792       .     S
C65   C63    1.37792       .     S
C66   C67    1.40509       .     S
C67   C66    1.40509       .     S
C67   C68    1.48489   1_545     S
C68   C67    1.48489   1_565     S
C7    O0     1.40575       .     S
O0    C7     1.40575       .     S
C8    O0     1.35328       .     S
O0    C8     1.35328       .     S
C12   O1     1.19631       .     S
O1    C12    1.19631       .     S
H3    O2     0.84009       .     S
O2    H3     0.84009       .     S
C12   O2     1.30992       .     S
O2    C12    1.30992       .     S
C8    N4     1.32026       .     S
N4    C8     1.32026       .     S
C46   N4     1.32026   1_556     S
N4    C46    1.32026   1_554     S
H6    C5     0.94994       .     S
C5    H6     0.94994       .     S
C7    C5     1.37792       .     S
C5    C7     1.37792       .     S
C33   C5     1.38435       .     S
C5    C33    1.38435       .     S
C18   C7     1.38435       .     S
C7    C18    1.38435       .     S
C9    C8     1.40509       .     S
C8    C9     1.40509       .     S
C10   C9     1.38475       .     S
C9    C10    1.38475       .     S
C12   C9     1.48489       .     S
C9    C12    1.48489       .     S
H11   C10    0.95005       .     S
C10   H11    0.95005       .     S
C47   C10    1.38475   1_556     S
C10   C47    1.38475   1_554     S
C20   O13    1.40575       .     S
O13   C20    1.40575       .     S
C21   O13    1.35328       .     S
O13   C21    1.35328       .     S
C25   O14    1.19631       .     S
O14   C25    1.19631       .     S
H16   O15    0.84009       .     S
O15   H16    0.84009       .     S
C25   O15    1.30992   1_565     S
O15   C25    1.30992   1_545     S
C21   N17    1.32026       .     S
N17   C21    1.32026       .     S
C66   N17    1.32026   1_556     S
N17   C66    1.32026   1_554     S
H19   C18    0.94994       .     S
C18   H19    0.94994       .     S
C20   C18    1.37792       .     S
C18   C20    1.37792       .     S
C31   C20    1.38435       .     S
C20   C31    1.38435       .     S
C22   C21    1.40509       .     S
C21   C22    1.40509       .     S
C23   C22    1.38475       .     S
C22   C23    1.38475       .     S
C25   C22    1.48489   1_565     S
C22   C25    1.48489   1_545     S
H24   C23    0.94993   1_565     S
C23   H24    0.94993   1_545     S
C67   C23    1.38475   1_556     S
C23   C67    1.38475   1_554     S
C33   O26    1.40575       .     S
O26   C33    1.40575       .     S
C34   O26    1.35328       .     S
O26   C34    1.35328       .     S
C38   O27    1.19631       .     S
O27   C38    1.19631       .     S
H29   O28    0.84014       .     S
O28   H29    0.84014       .     S
C38   O28    1.30992   1_455     S
O28   C38    1.30992   1_655     S
C34   N30    1.32026       .     S
N30   C34    1.32026       .     S
C56   N30    1.32026   1_556     S
N30   C56    1.32026   1_554     S
H32   C31    0.94994       .     S
C31   H32    0.94994       .     S
C33   C31    1.37792       .     S
C31   C33    1.37792       .     S
C35   C34    1.40509       .     S
C34   C35    1.40509       .     S
C36   C35    1.38475       .     S
C35   C36    1.38475       .     S
C38   C35    1.48489   1_455     S
C35   C38    1.48489   1_655     S
H37   C36    0.94987   1_455     S
C36   H37    0.94987   1_655     S
C57   C36    1.38475   1_556     S
C36   C57    1.38475   1_554     S
C45   O39    1.40575       .     S
O39   C45    1.40575       .     S
C46   O39    1.35328       .     S
O39   C46    1.35328       .     S
C48   O40    1.19631       .     S
O40   C48    1.19631       .     S
H42   O41    0.84009       .     S
O41   H42    0.84009       .     S
C48   O41    1.30992       .     S
O41   C48    1.30992       .     S
H44   C43    0.94994       .     S
C43   H44    0.94994       .     S
C45   C43    1.37792       .     S
C43   C45    1.37792       .     S
C55   C43    1.38435       .     S
C43   C55    1.38435       .     S
C63   C45    1.38435       .     S
C45   C63    1.38435       .     S
C47   C46    1.40509       .     S
C46   C47    1.40509       .     S
C48   C47    1.48489       .     S
C47   C48    1.48489       .     S
C55   O49    1.40575       .     S
O49   C55    1.40575       .     S
C56   O49    1.35328       .     S
O49   C56    1.35328       .     S
C58   O50    1.19631       .     S
O50   C58    1.19631       .     S
H52   O51    0.84014       .     S
O51   H52    0.84014       .     S
C58   O51    1.30992   1_455     S
O51   C58    1.30992   1_655     S
H54   C53    0.94994       .     S
C53   H54    0.94994       .     S
C55   C53    1.37792       .     S
C53   C55    1.37792       .     S
C65   C53    1.38435       .     S
C53   C65    1.38435       .     S
C57   C56    1.40509       .     S
C56   C57    1.40509       .     S
C58   C57    1.48489   1_455     S
C57   C58    1.48489   1_655     S
C65   O59    1.40575       .     S
O59   C65    1.40575       .     S
C66   O59    1.35328       .     S
O59   C66    1.35328       .     S
C68   O60    1.19631       .     S
O60   C68    1.19631       .     S
H62   O61    0.84009       .     S
O61   H62    0.84009       .     S
C68   O61    1.30992   1_565     S
O61   C68    1.30992   1_545     S
H64   C63    0.94994       .     S
C63   H64    0.94994       .     S
C65   C63    1.37792       .     S
C63   C65    1.37792       .     S
C67   C66    1.40509       .     S
C66   C67    1.40509       .     S
C68   C67    1.48489   1_565     S
C67   C68    1.48489   1_545     S
