data_I
_chemical_name_common  '/data/user2/wty/HOF/MOFDiff/mofdiff/data/test/275-cagehof-2'
_cell_length_a 22.64440
_cell_length_b 22.64440
_cell_length_c 16.43190
_cell_angle_alpha 90.00000
_cell_angle_beta  90.00000
_cell_angle_gamma 120.00000
_space_group_name_H-M_alt      'P 1'


loop_
_space_group_symop_operation_xyz
  'x, y, z' 

loop_
_atom_site_label
_atom_site_fract_x
_atom_site_fract_y
_atom_site_fract_z
_atom_site_type_symbol
O0     0.59829  0.59961  0.38909     O
O1      0.4875  0.39254  0.39574     O
H2     0.48135  0.37522  0.44103     H
O3      0.5581  0.48257  0.46479     O
O4     0.59693  0.80934  0.38892     O
O5      0.4784   0.8993  0.39508     O
H6     0.47007  0.90807   0.4406     H
O7       0.541   0.8701  0.46603     O
O8     0.80832  0.81029    0.389     O
O9     0.92315   0.8497  0.46582     O
O10     0.0169   0.9059  0.39492     O
H11    0.03428   0.9049  0.43828     H
N12     0.5978  0.59851     0.25     N
N13     0.5953   0.8095     0.25     N
N14    0.80943   0.8109     0.25     N
C15     0.6338  0.67085  0.38438     C
C16    0.59701   0.7044  0.38444     C
H17    0.54959  0.68064  0.38481     H
C18     0.6333    0.774  0.38394     C
C19     0.7036  0.81071  0.38392     C
H20     0.7271  0.85813   0.3839     H
C21    0.73732    0.775  0.38393     C
C22      0.703   0.7045  0.38463     C
H23    0.72673  0.68082  0.38525     H
C24     0.5811  0.56401  0.31928     C
C25     0.5471  0.49295  0.32354     C
C26     0.5293   0.4591     0.25     C
H27    0.50427  0.41167     0.25     H
C28      0.529  0.45481  0.40069     C
C29     0.5783   0.8268   0.3192     C
C30     0.5394   0.8591  0.32363     C
C31      0.522   0.8755     0.25     C
H32    0.49763  0.89851     0.25     H
C33     0.5201   0.8782  0.40072     C
C34     0.8438   0.8249  0.31926     C
C35    0.91461   0.8565  0.32335     C
C36     0.9488   0.8712     0.25     C
H37    0.99611  0.89158     0.25     H
C38     0.9529   0.8711   0.4008     C
O39    0.59829  0.59961  0.11091     O
O40     0.4875  0.39254  0.10426     O
H41    0.48135  0.37522  0.05897     H
O42     0.5581  0.48257  0.03521     O
O43    0.59693  0.80934  0.11108     O
O44     0.4784   0.8993  0.10492     O
H45    0.47007  0.90807   0.0594     H
O46      0.541   0.8701  0.03397     O
O47    0.80832  0.81029    0.111     O
O48    0.92315   0.8497  0.03418     O
O49     0.0169   0.9059  0.10508     O
H50    0.03428   0.9049  0.06172     H
C51     0.6338  0.67085  0.11562     C
C52    0.59701   0.7044  0.11556     C
H53    0.54959  0.68064  0.11519     H
C54     0.6333    0.774  0.11606     C
C55     0.7036  0.81071  0.11608     C
H56     0.7271  0.85813   0.1161     H
C57    0.73732    0.775  0.11607     C
C58      0.703   0.7045  0.11537     C
H59    0.72673  0.68082  0.11475     H
C60     0.5811  0.56401  0.18072     C
C61     0.5471  0.49295  0.17646     C
C62      0.529  0.45481  0.09931     C
C63     0.5783   0.8268   0.1808     C
C64     0.5394   0.8591  0.17637     C
C65     0.5201   0.8782  0.09928     C
C66     0.8438   0.8249  0.18074     C
C67    0.91461   0.8565  0.17665     C
C68     0.9529   0.8711   0.0992     C
loop_
_geom_bond_atom_site_label_1
_geom_bond_atom_site_label_2
_geom_bond_distance
_geom_bond_site_symmetry_2
_ccdc_geom_bond_type
O0    C15    1.39920       .     S
C15   O0     1.39920       .     S
O0    C24    1.34293       .     S
C24   O0     1.34293       .     S
O1    H2     0.82002       .     S
H2    O1     0.82002       .     S
O1    C28    1.24616       .     S
C28   O1     1.24616       .     S
O3    C28    1.23473       .     S
C28   O3     1.23473       .     S
O4    C18    1.40870       .     S
C18   O4     1.40870       .     S
O4    C29    1.34668       .     S
C29   O4     1.34668       .     S
O5    H6     0.81973       .     S
H6    O5     0.81973       .     S
O5    C33    1.25686       .     S
C33   O5     1.25686       .     S
O7    C33    1.22316       .     S
C33   O7     1.22316       .     S
O8    C21    1.39485       .     S
C21   O8     1.39485       .     S
O8    C34    1.34252       .     S
C34   O8     1.34252       .     S
O9    C38    1.22625       .     S
C38   O9     1.22625       .     S
O10   H11    0.81973       .     S
H11   O10    0.81973       .     S
O10   C38    1.26039   1_455     S
C38   O10    1.26039   1_655     S
N12   C24    1.32433       .     S
C24   N12    1.32433       .     S
N12   C60    1.32433       .     S
C60   N12    1.32433       .     S
N13   C29    1.32115       .     S
C29   N13    1.32115       .     S
N13   C63    1.32115       .     S
C63   N13    1.32115       .     S
N14   C34    1.32465       .     S
C34   N14    1.32465       .     S
N14   C66    1.32466       .     S
C66   N14    1.32466       .     S
C15   C16    1.37990       .     S
C16   C15    1.37990       .     S
C15   C22    1.35723       .     S
C22   C15    1.35723       .     S
C16   H17    0.92996       .     S
H17   C16    0.92996       .     S
C16   C18    1.36534       .     S
C18   C16    1.36534       .     S
C18   C19    1.37908       .     S
C19   C18    1.37908       .     S
C19   H20    0.92995       .     S
H20   C19    0.92995       .     S
C19   C21    1.36175       .     S
C21   C19    1.36175       .     S
C21   C22    1.38276       .     S
C22   C21    1.38276       .     S
C22   H23    0.92980       .     S
H23   C22    0.92980       .     S
C24   C25    1.39572       .     S
C25   C24    1.39572       .     S
C25   C26    1.37887       .     S
C26   C25    1.37887       .     S
C25   C28    1.47208       .     S
C28   C25    1.47208       .     S
C26   H27    0.93061       .     S
H27   C26    0.93061       .     S
C26   C61    1.37887       .     S
C61   C26    1.37887       .     S
C29   C30    1.40017       .     S
C30   C29    1.40017       .     S
C30   C31    1.37960       .     S
C31   C30    1.37960       .     S
C30   C33    1.47367       .     S
C33   C30    1.47367       .     S
C31   H32    0.92928       .     S
H32   C31    0.92928       .     S
C31   C64    1.37960       .     S
C64   C31    1.37960       .     S
C34   C35    1.39292       .     S
C35   C34    1.39292       .     S
C35   C36    1.38029       .     S
C36   C35    1.38029       .     S
C35   C38    1.48124       .     S
C38   C35    1.48124       .     S
C36   H37    0.93074       .     S
H37   C36    0.93074       .     S
C36   C67    1.38029       .     S
C67   C36    1.38029       .     S
O39   C51    1.39920       .     S
C51   O39    1.39920       .     S
O39   C60    1.34293       .     S
C60   O39    1.34293       .     S
O40   H41    0.82002       .     S
H41   O40    0.82002       .     S
O40   C62    1.24616       .     S
C62   O40    1.24616       .     S
O42   C62    1.23473       .     S
C62   O42    1.23473       .     S
O43   C54    1.40870       .     S
C54   O43    1.40870       .     S
O43   C63    1.34668       .     S
C63   O43    1.34668       .     S
O44   H45    0.81973       .     S
H45   O44    0.81973       .     S
O44   C65    1.25686       .     S
C65   O44    1.25686       .     S
O46   C65    1.22316       .     S
C65   O46    1.22316       .     S
O47   C57    1.39485       .     S
C57   O47    1.39485       .     S
O47   C66    1.34252       .     S
C66   O47    1.34252       .     S
O48   C68    1.22625       .     S
C68   O48    1.22625       .     S
O49   H50    0.81973       .     S
H50   O49    0.81973       .     S
O49   C68    1.26039   1_455     S
C68   O49    1.26039   1_655     S
C51   C52    1.37990       .     S
C52   C51    1.37990       .     S
C51   C58    1.35723       .     S
C58   C51    1.35723       .     S
C52   H53    0.92996       .     S
H53   C52    0.92996       .     S
C52   C54    1.36534       .     S
C54   C52    1.36534       .     S
C54   C55    1.37908       .     S
C55   C54    1.37908       .     S
C55   H56    0.92995       .     S
H56   C55    0.92995       .     S
C55   C57    1.36175       .     S
C57   C55    1.36175       .     S
C57   C58    1.38276       .     S
C58   C57    1.38276       .     S
C58   H59    0.92980       .     S
H59   C58    0.92980       .     S
C60   C61    1.39572       .     S
C61   C60    1.39572       .     S
C61   C62    1.47208       .     S
C62   C61    1.47208       .     S
C63   C64    1.40017       .     S
C64   C63    1.40017       .     S
C64   C65    1.47367       .     S
C65   C64    1.47367       .     S
C66   C67    1.39292       .     S
C67   C66    1.39292       .     S
C67   C68    1.48124       .     S
C68   C67    1.48124       .     S
C15   O0     1.39920       .     S
O0    C15    1.39920       .     S
C24   O0     1.34293       .     S
O0    C24    1.34293       .     S
H2    O1     0.82002       .     S
O1    H2     0.82002       .     S
C28   O1     1.24616       .     S
O1    C28    1.24616       .     S
C28   O3     1.23473       .     S
O3    C28    1.23473       .     S
C18   O4     1.40870       .     S
O4    C18    1.40870       .     S
C29   O4     1.34668       .     S
O4    C29    1.34668       .     S
H6    O5     0.81973       .     S
O5    H6     0.81973       .     S
C33   O5     1.25686       .     S
O5    C33    1.25686       .     S
C33   O7     1.22316       .     S
O7    C33    1.22316       .     S
C21   O8     1.39485       .     S
O8    C21    1.39485       .     S
C34   O8     1.34252       .     S
O8    C34    1.34252       .     S
C38   O9     1.22625       .     S
O9    C38    1.22625       .     S
H11   O10    0.81973       .     S
O10   H11    0.81973       .     S
C38   O10    1.26039   1_655     S
O10   C38    1.26039   1_455     S
C24   N12    1.32433       .     S
N12   C24    1.32433       .     S
C60   N12    1.32433       .     S
N12   C60    1.32433       .     S
C29   N13    1.32115       .     S
N13   C29    1.32115       .     S
C63   N13    1.32115       .     S
N13   C63    1.32115       .     S
C34   N14    1.32465       .     S
N14   C34    1.32465       .     S
C66   N14    1.32466       .     S
N14   C66    1.32466       .     S
C16   C15    1.37990       .     S
C15   C16    1.37990       .     S
C22   C15    1.35723       .     S
C15   C22    1.35723       .     S
H17   C16    0.92996       .     S
C16   H17    0.92996       .     S
C18   C16    1.36534       .     S
C16   C18    1.36534       .     S
C19   C18    1.37908       .     S
C18   C19    1.37908       .     S
H20   C19    0.92995       .     S
C19   H20    0.92995       .     S
C21   C19    1.36175       .     S
C19   C21    1.36175       .     S
C22   C21    1.38276       .     S
C21   C22    1.38276       .     S
H23   C22    0.92980       .     S
C22   H23    0.92980       .     S
C25   C24    1.39572       .     S
C24   C25    1.39572       .     S
C26   C25    1.37887       .     S
C25   C26    1.37887       .     S
C28   C25    1.47208       .     S
C25   C28    1.47208       .     S
H27   C26    0.93061       .     S
C26   H27    0.93061       .     S
C61   C26    1.37887       .     S
C26   C61    1.37887       .     S
C30   C29    1.40017       .     S
C29   C30    1.40017       .     S
C31   C30    1.37960       .     S
C30   C31    1.37960       .     S
C33   C30    1.47367       .     S
C30   C33    1.47367       .     S
H32   C31    0.92928       .     S
C31   H32    0.92928       .     S
C64   C31    1.37960       .     S
C31   C64    1.37960       .     S
C35   C34    1.39292       .     S
C34   C35    1.39292       .     S
C36   C35    1.38029       .     S
C35   C36    1.38029       .     S
C38   C35    1.48124       .     S
C35   C38    1.48124       .     S
H37   C36    0.93074       .     S
C36   H37    0.93074       .     S
C67   C36    1.38029       .     S
C36   C67    1.38029       .     S
C51   O39    1.39920       .     S
O39   C51    1.39920       .     S
C60   O39    1.34293       .     S
O39   C60    1.34293       .     S
H41   O40    0.82002       .     S
O40   H41    0.82002       .     S
C62   O40    1.24616       .     S
O40   C62    1.24616       .     S
C62   O42    1.23473       .     S
O42   C62    1.23473       .     S
C54   O43    1.40870       .     S
O43   C54    1.40870       .     S
C63   O43    1.34668       .     S
O43   C63    1.34668       .     S
H45   O44    0.81973       .     S
O44   H45    0.81973       .     S
C65   O44    1.25686       .     S
O44   C65    1.25686       .     S
C65   O46    1.22316       .     S
O46   C65    1.22316       .     S
C57   O47    1.39485       .     S
O47   C57    1.39485       .     S
C66   O47    1.34252       .     S
O47   C66    1.34252       .     S
C68   O48    1.22625       .     S
O48   C68    1.22625       .     S
H50   O49    0.81973       .     S
O49   H50    0.81973       .     S
C68   O49    1.26039   1_655     S
O49   C68    1.26039   1_455     S
C52   C51    1.37990       .     S
C51   C52    1.37990       .     S
C58   C51    1.35723       .     S
C51   C58    1.35723       .     S
H53   C52    0.92996       .     S
C52   H53    0.92996       .     S
C54   C52    1.36534       .     S
C52   C54    1.36534       .     S
C55   C54    1.37908       .     S
C54   C55    1.37908       .     S
H56   C55    0.92995       .     S
C55   H56    0.92995       .     S
C57   C55    1.36175       .     S
C55   C57    1.36175       .     S
C58   C57    1.38276       .     S
C57   C58    1.38276       .     S
H59   C58    0.92980       .     S
C58   H59    0.92980       .     S
C61   C60    1.39572       .     S
C60   C61    1.39572       .     S
C62   C61    1.47208       .     S
C61   C62    1.47208       .     S
C64   C63    1.40017       .     S
C63   C64    1.40017       .     S
C65   C64    1.47367       .     S
C64   C65    1.47367       .     S
C67   C66    1.39292       .     S
C66   C67    1.39292       .     S
C68   C67    1.48124       .     S
C67   C68    1.48124       .     S
