data_I
_chemical_name_common  '/data/user2/wty/HOF/MOFDiff/mofdiff/data/test/277-hdsd-1'
_cell_length_a 10.86320
_cell_length_b  8.74470
_cell_length_c  7.52510
_cell_angle_alpha 90.00000
_cell_angle_beta  90.00010
_cell_angle_gamma 90.00000
_space_group_name_H-M_alt      'P 1'


loop_
_space_group_symop_operation_xyz
  'x, y, z' 

loop_
_atom_site_label
_atom_site_fract_x
_atom_site_fract_y
_atom_site_fract_z
_atom_site_type_symbol
S0     0.81549  0.45264   0.2239     S
O1      0.8437    0.379   0.0564     O
O2      0.9247   0.4924    0.327     O
O3       0.729   0.3635   0.3288     O
N4      0.8268   0.0445   0.1978     N
H5     0.80411   0.1153  0.11548     H
H6     0.90849  0.02372  0.18594     H
H7     0.81199  0.08159   0.3087     H
C8      0.8086    0.764   0.2032     C
H9     0.89067  0.75886  0.24633     H
C10     0.7551   0.9028   0.1705     C
C11     0.6335   0.9135   0.1167     C
H12     0.5954  0.01062  0.10409     H
C13     0.6206   0.6362   0.1032     C
C14      0.568   0.7806   0.0814     C
H15    0.48525  0.78814  0.04147     H
C16     0.5501   0.4987   0.0502     C
H17    0.57853  0.40215   0.0909     H
C18     0.7418   0.6293   0.1729     C
loop_
_geom_bond_atom_site_label_1
_geom_bond_atom_site_label_2
_geom_bond_distance
_geom_bond_site_symmetry_2
_ccdc_geom_bond_type
H5    O1     2.38750       .     S
O1    H5     2.38750       .     S
S0    O1     1.44822       .     S
O1    S0     1.44822       .     S
S0    O2     1.45955       .     S
O2    S0     1.45955       .     S
S0    O3     1.45380       .     S
O3    S0     1.45380       .     S
S0    C18    1.78175       .     S
C18   S0     1.78175       .     S
N4    H5     0.90984       .     S
H5    N4     0.90984       .     S
N4    H6     0.91021       .     S
H6    N4     0.91021       .     S
N4    H7     0.90969       .     S
H7    N4     0.90969       .     S
N4    C10    1.47794   1_545     S
C10   N4     1.47794   1_565     S
C8    H9     0.94984       .     S
H9    C8     0.94984       .     S
C8    C10    1.36804       .     S
C10   C8     1.36804       .     S
C8    C18    1.40216       .     S
C18   C8     1.40216       .     S
C10   C11    1.38478       .     S
C11   C10    1.38478       .     S
C11   H12    0.94952   1_565     S
H12   C11    0.94952   1_545     S
C11   C14    1.38834       .     S
C14   C11    1.38834       .     S
C13   C14    1.39568       .     S
C14   C13    1.39568       .     S
C13   C16    1.48032       .     S
C16   C13    1.48032       .     S
C13   C18    1.41853       .     S
C18   C13    1.41853       .     S
C14   H15    0.95011       .     S
H15   C14    0.95011       .     S
C16   H17    0.94975       .     S
H17   C16    0.94975       .     S
O1    H5     2.38750       .     S
H5    O1     2.38750       .     S
O1    S0     1.44822       .     S
S0    O1     1.44822       .     S
O2    S0     1.45955       .     S
S0    O2     1.45955       .     S
O3    S0     1.45380       .     S
S0    O3     1.45380       .     S
C18   S0     1.78175       .     S
S0    C18    1.78175       .     S
H5    N4     0.90984       .     S
N4    H5     0.90984       .     S
H6    N4     0.91021       .     S
N4    H6     0.91021       .     S
H7    N4     0.90969       .     S
N4    H7     0.90969       .     S
C10   N4     1.47794   1_565     S
N4    C10    1.47794   1_545     S
H9    C8     0.94984       .     S
C8    H9     0.94984       .     S
C10   C8     1.36804       .     S
C8    C10    1.36804       .     S
C18   C8     1.40216       .     S
C8    C18    1.40216       .     S
C11   C10    1.38478       .     S
C10   C11    1.38478       .     S
H12   C11    0.94952   1_545     S
C11   H12    0.94952   1_565     S
C14   C11    1.38834       .     S
C11   C14    1.38834       .     S
C14   C13    1.39568       .     S
C13   C14    1.39568       .     S
C16   C13    1.48032       .     S
C13   C16    1.48032       .     S
C18   C13    1.41853       .     S
C13   C18    1.41853       .     S
H15   C14    0.95011       .     S
C14   H15    0.95011       .     S
H17   C16    0.94975       .     S
C16   H17    0.94975       .     S
