data_I
_chemical_name_common  '/data/user2/wty/HOF/MOFDiff/mofdiff/data/test/281-hof-btb-nh2'
_cell_length_a 24.02740
_cell_length_b 31.64890
_cell_length_c 24.54330
_cell_angle_alpha 90.00000
_cell_angle_beta  90.00000
_cell_angle_gamma 90.00000
_space_group_name_H-M_alt      'P 1'


loop_
_space_group_symop_operation_xyz
  'x, y, z' 

loop_
_atom_site_label
_atom_site_fract_x
_atom_site_fract_y
_atom_site_fract_z
_atom_site_type_symbol
O0      0.6069   0.9692    0.872     O
O1      0.0505   0.7844    0.024     O
H2     0.08095  0.77996  0.03806     H
O3       0.621   0.9577    0.784     O
H4     0.60537  0.98054  0.78032     H
N5      0.6491     0.75   0.8451     N
H6       0.631     0.77    0.825     H
C7      0.8658     0.75   0.9436     C
C8       0.028     0.75   0.0126     C
C9      0.7024     0.75   0.8676     C
C10     0.7028   0.8292   0.8694     C
C11     0.6242   0.9489   0.8332     C
C12     0.9452   0.7876   0.9778     C
H13    0.96198  0.81315  0.98679     H
C14      0.972     0.75   0.9872     C
C15     0.6521   0.9054   0.8447     C
C16     0.6652   0.8792    0.803     C
H17    0.65726  0.88654  0.76714     H
C18     0.8928   0.7867   0.9548     C
H19    0.87532  0.81215  0.94675     H
C20     0.7806   0.7874   0.9077     C
H21    0.79697  0.81273  0.91813     H
C22     0.7292   0.7882   0.8816     C
C23      0.691   0.8408   0.8157     C
H24    0.70051  0.82241   0.7876     H
C25     0.8078     0.75   0.9187     C
C26     0.6908   0.8576   0.9094     C
H27    0.69966  0.85131  0.94531     H
C28     0.6651   0.8965   0.8971     C
H29    0.65718  0.91576  0.92461     H
N30     0.8148     0.75     0.77     N
H31       0.79    0.729    0.773     H
O32     0.7875   0.9763   0.7487     O
O33     0.2022   0.7147   0.5655     O
H34    0.23396  0.71867  0.55429     H
O35     0.7882   0.9568    0.835     O
H36    0.78833  0.98226  0.84095     H
C37     0.9378   0.7869   0.6949     C
H38    0.95332  0.81247  0.68417     H
C39     0.9643     0.75   0.6782     C
C40     0.8902   0.7882   0.7263     C
C41     0.1236     0.75   0.6012     C
C42     0.8643     0.75   0.7399     C
C43     0.8659     0.83   0.7428     C
C44     0.0178     0.75   0.6502     C
C45      0.822   0.9082   0.7706     C
C46      0.855   0.8394   0.7959     C
H47    0.86234  0.81983  0.82317     H
C48     0.0979   0.7112   0.6121     C
H49    0.11502  0.68572  0.60346     H
C50     0.0454   0.7126   0.6364     C
H51    0.02764  0.68712  0.64379     H
C52     0.1799     0.75   0.5773     C
C53      0.856   0.8608   0.7022     C
H54    0.86338  0.85519  0.66573     H
C55     0.7981   0.9503    0.785     C
C56     0.8349      0.9   0.7185     C
H57    0.82962  0.92103  0.69245     H
C58     0.8327   0.8789   0.8088     C
H59    0.82499  0.88516  0.84504     H
O60     0.4443   0.9596   0.8486     O
H61     0.4267  0.98174  0.85127     H
N62     0.4653     0.75   0.7781     N
H63    0.45702   0.7244  0.80015     H
O64     0.4243   0.9698   0.7592     O
C65     0.5962   0.7867   0.7193     C
H66    0.61294  0.81231  0.71062     H
C67     0.6242     0.75    0.705     C
C68     0.7815     0.75   0.6211     C
C69     0.5459   0.7879   0.7451     C
C70     0.6781     0.75   0.6768     C
C71     0.7557   0.7873   0.6364     C
H72    0.77296  0.81269  0.62774     H
C73      0.706   0.7885   0.6638     C
H74     0.6905  0.81426   0.6738     H
C75      0.834     0.75   0.5922     C
C76     0.5186     0.75   0.7573     C
C77     0.5193   0.8293   0.7586     C
C78     0.5179   0.8429   0.8118     C
H79    0.53317  0.82607  0.83905     H
C80     0.4471   0.9489    0.799     C
C81     0.4719   0.9067   0.7859     C
C82     0.4973   0.8554   0.7195     C
H83    0.49805  0.84708  0.68314     H
C84     0.4936   0.8819   0.8256     C
H85    0.49243  0.89061  0.86175     H
C86     0.4739   0.8938   0.7332     C
H87    0.45939  0.91101  0.70604     H
O88     0.8557   0.7855   0.5789     O
O89     0.7401   0.9524   0.2747     O
H90    0.73842  0.97764  0.26751     H
O91     0.7342   0.9736   0.3594     O
O92     0.3037   0.7849   0.5276     O
C93     0.6479     0.75    0.364     C
C94     0.3278     0.75   0.5184     C
C95     0.6474   0.8299   0.3642     C
C96     0.4896     0.75   0.4458     C
C97     0.6861   0.8769   0.2968     C
H98    0.69653  0.88241    0.261     H
C99     0.6223   0.7882   0.3773     C
C100    0.6957    0.907   0.3362     C
C101    0.3835     0.75   0.4939     C
C102    0.6615   0.8391   0.3091     C
H103   0.65407  0.81962  0.28172     H
C104    0.5449     0.75   0.4212     C
C105    0.5726   0.7878   0.4068     C
H106   0.55708  0.81344  0.41734     H
C107    0.6563   0.8608   0.4024     C
H108   0.64504  0.85584  0.43813     H
C109    0.6811   0.8989     0.39     C
H110   0.68799  0.91874  0.41715     H
C111    0.7257   0.9465   0.3241     C
C112    0.4616   0.7866   0.4596     C
H113   0.47876   0.8123  0.45233     H
C114    0.4105   0.7872   0.4832     C
H115   0.39387  0.81286  0.49208     H
N116    0.6992     0.75   0.3377     N
H117     0.715    0.776    0.338     H
N118    0.9776     0.75   0.8343     N
H119   0.95723  0.77406   0.8312     H
O120    0.9416   0.9547   0.9016     O
O121    0.3782   0.7139   0.6532     O
H122   0.41062   0.7173   0.6436     H
C123     0.107   0.7871   0.7702     C
H124   0.12346  0.81273  0.76109     H
C125    0.0567   0.7883   0.7972     C
C126    0.1349     0.75   0.7556     C
C127    0.1893     0.75   0.7295     C
C128     0.217   0.7119   0.7179     C
H129   0.19973   0.6863  0.72558     H
C130    0.2972     0.75   0.6825     C
O131     0.939   0.9719   0.8133     O
H132   0.92371  0.99298  0.82566     H
C133     0.022   0.8603   0.7713     C
H134   0.03313  0.85505  0.73561     H
C135    0.0289     0.75   0.8098     C
C136     0.997   0.8979   0.7846     C
H137   0.99101  0.91781  0.75735     H
C138    0.2702   0.7123   0.6951     C
H139   0.28801  0.68679  0.68811     H
C140    0.0305   0.8304   0.8111     C
C141    0.9805   0.9071   0.8367     C
C142    0.0148   0.8387   0.8642     C
H143   0.01987  0.81817  0.89089     H
C144    0.9518   0.9467   0.8527     C
C145     0.355     0.75   0.6601     C
C146    0.9911    0.878   0.8782     C
H147   0.98266   0.8844  0.91423     H
C148    0.8152     0.75   0.4337     C
C149    0.6623     0.75    0.524     C
C150    0.7895   0.7875   0.4486     C
C151    0.5569     0.75   0.5771     C
C152    0.8135   0.8298   0.4326     C
C153    0.5007     0.75   0.6023     C
C154    0.6341   0.7866   0.5381     C
H155   0.65038  0.81241   0.5293     H
C156    0.8408   0.8798   0.3627     C
H157   0.84472  0.88675  0.32613     H
C158    0.5824    0.787   0.5649     C
H159   0.56575  0.81254   0.5743     H
C160    0.8569    0.908   0.4036     C
C161    0.7146     0.75   0.4949     C
C162    0.8831   0.9493   0.3861     C
C163    0.8193   0.8416    0.378     C
H164   0.80802  0.82283  0.35111     H
C165     0.741   0.7871   0.4795     C
H166   0.72565  0.81269  0.49035     H
C167    0.8299   0.8585   0.4722     C
H168    0.8262  0.85176  0.50888     H
C169    0.8513   0.8964   0.4573     C
H170   0.86265  0.91522  0.48427     H
N171    0.8659     0.75    0.406     N
H172      0.88    0.729    0.385     H
O173    0.8862   0.9581   0.3371     O
O174    0.4785   0.7848   0.6125     O
O175    0.8937    0.974   0.4249     O
H176   0.90945  0.99509  0.41312     H
loop_
_geom_bond_atom_site_label_1
_geom_bond_atom_site_label_2
_geom_bond_distance
_geom_bond_site_symmetry_2
_ccdc_geom_bond_type
O0    C11    1.22164       .     S
C11   O0     1.22164       .     S
O1    H2     0.82104       .     S
H2    O1     0.82104       .     S
O1    C8     1.24734       .     S
C8    O1     1.24734       .     S
O3    H4     0.81959       .     S
H4    O3     0.81959       .     S
O3    C11    1.24162       .     S
C11   O3     1.24162       .     S
N5    H6     0.91278       .     S
H6    N5     0.91278       .     S
N5    C9     1.39465       .     S
C9    N5     1.39465       .     S
C7    C18    1.35851       .     S
C18   C7     1.35851       .     S
C7    C25    1.52170       .     S
C25   C7     1.52170       .     S
C8    C14    1.48293   1_454     S
C14   C8     1.48293   1_656     S
C9    C22    1.41222       .     S
C22   C9     1.41222       .     S
C10   C22    1.47506       .     S
C22   C10    1.47506       .     S
C10   C23    1.39722       .     S
C23   C10    1.39722       .     S
C10   C26    1.36192       .     S
C26   C10    1.36192       .     S
C11   C15    1.55706       .     S
C15   C11    1.55706       .     S
C12   H13    0.93012       .     S
H13   C12    0.93012       .     S
C12   C14    1.37258       .     S
C14   C12    1.37258       .     S
C12   C18    1.38009       .     S
C18   C12    1.38009       .     S
C15   C16    1.35429       .     S
C16   C15    1.35429       .     S
C15   C28    1.35310       .     S
C28   C15    1.35310       .     S
C16   H17    0.93004       .     S
H17   C16    0.93004       .     S
C16   C23    1.39944       .     S
C23   C16    1.39944       .     S
C18   H19    0.92963       .     S
H19   C18    0.92963       .     S
C20   H21    0.92893       .     S
H21   C20    0.92893       .     S
C20   C22    1.39149       .     S
C22   C20    1.39149       .     S
C20   C25    1.37880       .     S
C25   C20    1.37880       .     S
C23   H24    0.93092       .     S
H24   C23    0.93092       .     S
C26   H27    0.92829       .     S
H27   C26    0.92829       .     S
C26   C28    1.41002       .     S
C28   C26    1.41002       .     S
C28   H29    0.92933       .     S
H29   C28    0.92933       .     S
N30   H31    0.89567       .     S
H31   N30    0.89567       .     S
N30   C42    1.40012       .     S
C42   N30    1.40012       .     S
O32   C55    1.23924       .     S
C55   O32    1.23924       .     S
O33   H34    0.82087       .     S
H34   O33    0.82087       .     S
O33   C52    1.27245       .     S
C52   O33    1.27245       .     S
O35   H36    0.81891       .     S
H36   O35    0.81891       .     S
O35   C55    1.26682       .     S
C55   O35    1.26682       .     S
C37   H38    0.92915       .     S
H38   C37    0.92915       .     S
C37   C39    1.39186       .     S
C39   C37    1.39186       .     S
C37   C40    1.37973       .     S
C40   C37    1.37973       .     S
C39   C44    1.45763   1_655     S
C44   C39    1.45763   1_455     S
C40   C42    1.40012       .     S
C42   C40    1.40012       .     S
C40   C43    1.50167       .     S
C43   C40    1.50167       .     S
C41   C48    1.40029       .     S
C48   C41    1.40029       .     S
C41   C52    1.47445       .     S
C52   C41    1.47445       .     S
C43   C46    1.36219       .     S
C46   C43    1.36219       .     S
C43   C53    1.41412       .     S
C53   C43    1.41412       .     S
C44   C50    1.39842       .     S
C50   C44    1.39842       .     S
C45   C55    1.49332       .     S
C55   C45    1.49332       .     S
C45   C56    1.34109       .     S
C56   C45    1.34109       .     S
C45   C58    1.34351       .     S
C58   C45    1.34351       .     S
C46   H47    0.92881       .     S
H47   C46    0.92881       .     S
C46   C58    1.39648       .     S
C58   C46    1.39648       .     S
C48   H49    0.92977       .     S
H49   C48    0.92977       .     S
C48   C50    1.39603       .     S
C50   C48    1.39603       .     S
C50   H51    0.93021       .     S
H51   C50    0.93021       .     S
C53   H54    0.92960       .     S
H54   C53    0.92960       .     S
C53   C56    1.39866       .     S
C56   C53    1.39866       .     S
C56   H57    0.93159       .     S
H57   C56    0.93159       .     S
C58   H59    0.92989       .     S
H59   C58    0.92989       .     S
O60   H61    0.82104       .     S
H61   O60    0.82104       .     S
O60   C80    1.26536       .     S
C80   O60    1.26536       .     S
N62   H63    0.99443       .     S
H63   N62    0.99443       .     S
N62   C76    1.37866       .     S
C76   N62    1.37866       .     S
O64   C80    1.30070       .     S
C80   O64    1.30070       .     S
C65   H66    0.92958       .     S
H66   C65    0.92958       .     S
C65   C67    1.38741       .     S
C67   C65    1.38741       .     S
C65   C69    1.36494       .     S
C69   C65    1.36494       .     S
C67   C70    1.46842       .     S
C70   C67    1.46842       .     S
C68   C71    1.38524       .     S
C71   C68    1.38524       .     S
C68   C75    1.44718       .     S
C75   C68    1.44718       .     S
C69   C76    1.39954       .     S
C76   C69    1.39954       .     S
C69   C77    1.49501       .     S
C77   C69    1.49501       .     S
C70   C73    1.42684       .     S
C73   C70    1.42684       .     S
C71   H72    0.92892       .     S
H72   C71    0.92892       .     S
C71   C73    1.37102       .     S
C73   C71    1.37102       .     S
C73   H74    0.92931       .     S
H74   C73    0.92931       .     S
C75   O88    1.28091       .     S
O88   C75    1.28091       .     S
C77   C78    1.37523       .     S
C78   C77    1.37523       .     S
C77   C82    1.37211       .     S
C82   C77    1.37211       .     S
C78   H79    0.93039       .     S
H79   C78    0.93039       .     S
C78   C84    1.40682       .     S
C84   C78    1.40682       .     S
C80   C81    1.49741       .     S
C81   C80    1.49741       .     S
C81   C84    1.35547       .     S
C84   C81    1.35547       .     S
C81   C86    1.35719       .     S
C86   C81    1.35719       .     S
C82   H83    0.93061       .     S
H83   C82    0.93061       .     S
C82   C86    1.38064       .     S
C86   C82    1.38064       .     S
C84   H85    0.92950       .     S
H85   C84    0.92950       .     S
C86   H87    0.92875       .     S
H87   C86    0.92875       .     S
O89   H90    0.81907       .     S
H90   O89    0.81907       .     S
O89   C111   1.27459       .     S
C111  O89    1.27459       .     S
O91   C111   1.23610       .     S
C111  O91    1.23610       .     S
O92   C94    1.26741       .     S
C94   O92    1.26741       .     S
C93   C99    1.39519       .     S
C99   C93    1.39519       .     S
C93   N116   1.39139       .     S
N116  C93    1.39139       .     S
C94   C101   1.46721       .     S
C101  C94    1.46721       .     S
C95   C99    1.48622       .     S
C99   C95    1.48622       .     S
C95   C102   1.42421       .     S
C102  C95    1.42421       .     S
C95   C107   1.37154       .     S
C107  C95    1.37154       .     S
C96   C104   1.45946       .     S
C104  C96    1.45946       .     S
C96   C112   1.38170       .     S
C112  C96    1.38170       .     S
C97   H98    0.93018       .     S
H98   C97    0.93018       .     S
C97   C100   1.37688       .     S
C100  C97    1.37688       .     S
C97   C102   1.36810       .     S
C102  C97    1.36810       .     S
C99   C105   1.39657       .     S
C105  C99    1.39657       .     S
C100  C109   1.39008       .     S
C109  C100   1.39008       .     S
C100  C111   1.47330       .     S
C111  C100   1.47330       .     S
C101  C114   1.36965       .     S
C114  C101   1.36965       .     S
C102  H103   0.92927       .     S
H103  C102   0.92927       .     S
C104  C105   1.41389       .     S
C105  C104   1.41389       .     S
C105  H106   0.92977       .     S
H106  C105   0.92977       .     S
C107  H108   0.93105       .     S
H108  C107   0.93105       .     S
C107  C109   1.37902       .     S
C109  C107   1.37902       .     S
C109  H110   0.93043       .     S
H110  C109   0.93043       .     S
C112  H113   0.92920       .     S
H113  C112   0.92920       .     S
C112  C114   1.35770       .     S
C114  C112   1.35770       .     S
C114  H115   0.93096       .     S
H115  C114   0.93096       .     S
N116  H117   0.90625       .     S
H117  N116   0.90625       .     S
N118  H119   0.90839       .     S
H119  N118   0.90839       .     S
N118  C135   1.37146   1_655     S
C135  N118   1.37146   1_455     S
O120  C144   1.25083       .     S
C144  O120   1.25083       .     S
O121  H122   0.82091       .     S
H122  O121   0.82091       .     S
O121  C145   1.28249       .     S
C145  O121   1.28249       .     S
C123  H124   0.92972       .     S
H124  C123   0.92972       .     S
C123  C125   1.37885       .     S
C125  C123   1.37885       .     S
C123  C126   1.39874       .     S
C126  C123   1.39874       .     S
C125  C135   1.41814       .     S
C135  C125   1.41814       .     S
C125  C140   1.51262       .     S
C140  C125   1.51262       .     S
C126  C127   1.45562       .     S
C127  C126   1.45562       .     S
C127  C128   1.40643       .     S
C128  C127   1.40643       .     S
C128  H129   0.92960       .     S
H129  C128   0.92960       .     S
C128  C138   1.39544       .     S
C138  C128   1.39544       .     S
C130  C138   1.39289       .     S
C138  C130   1.39289       .     S
C130  C145   1.49364       .     S
C145  C130   1.49364       .     S
O131  H132   0.81981       .     S
H132  O131   0.81981       .     S
O131  C144   1.29065       .     S
C144  O131   1.29065       .     S
C133  H134   0.93081       .     S
H134  C133   0.93081       .     S
C133  C136   1.37240   1_455     S
C136  C133   1.37240   1_655     S
C133  C140   1.37528       .     S
C140  C133   1.37528       .     S
C136  H137   0.93010       .     S
H137  C136   0.93010       .     S
C136  C141   1.37005       .     S
C141  C136   1.37005       .     S
C138  H139   0.92973       .     S
H139  C138   0.92973       .     S
C140  C142   1.38194       .     S
C142  C140   1.38194       .     S
C141  C144   1.48340       .     S
C144  C141   1.48340       .     S
C141  C146   1.39661       .     S
C146  C141   1.39661       .     S
C142  H143   0.93066       .     S
H143  C142   0.93066       .     S
C142  C146   1.41046   1_455     S
C146  C142   1.41046   1_655     S
C146  H147   0.92958       .     S
H147  C146   0.92958       .     S
C148  C150   1.38695       .     S
C150  C148   1.38695       .     S
C148  N171   1.39506       .     S
N171  C148   1.39506       .     S
C149  C154   1.38587       .     S
C154  C149   1.38587       .     S
C149  C161   1.44541       .     S
C161  C149   1.44541       .     S
C150  C152   1.50963       .     S
C152  C150   1.50963       .     S
C150  C165   1.39043       .     S
C165  C150   1.39043       .     S
C151  C153   1.48524       .     S
C153  C151   1.48524       .     S
C151  C158   1.35511       .     S
C158  C151   1.35511       .     S
C152  C163   1.39809       .     S
C163  C152   1.39809       .     S
C152  C167   1.38742       .     S
C167  C152   1.38742       .     S
C153  O174   1.24909       .     S
O174  C153   1.24909       .     S
C154  H155   0.93108       .     S
H155  C154   0.93108       .     S
C154  C158   1.40567       .     S
C158  C154   1.40567       .     S
C156  H157   0.92889       .     S
H157  C156   0.92889       .     S
C156  C160   1.39780       .     S
C160  C156   1.39780       .     S
C156  C163   1.36731       .     S
C163  C156   1.36731       .     S
C158  H159   0.93093       .     S
H159  C158   0.93093       .     S
C160  C162   1.51304       .     S
C162  C160   1.51304       .     S
C160  C169   1.37475       .     S
C169  C160   1.37475       .     S
C161  C165   1.38705       .     S
C165  C161   1.38705       .     S
C162  O173   1.23670       .     S
O173  C162   1.23670       .     S
C162  O175   1.25809       .     S
O175  C162   1.25809       .     S
C163  H164   0.92839       .     S
H164  C163   0.92839       .     S
C165  H166   0.92891       .     S
H166  C165   0.92891       .     S
C167  H168   0.92944       .     S
H168  C167   0.92944       .     S
C167  C169   1.35532       .     S
C169  C167   1.35532       .     S
C169  H170   0.93129       .     S
H170  C169   0.93129       .     S
N171  H172   0.90673       .     S
H172  N171   0.90673       .     S
O175  H176   0.81995       .     S
H176  O175   0.81995       .     S
C11   O0     1.22164       .     S
O0    C11    1.22164       .     S
H2    O1     0.82104       .     S
O1    H2     0.82104       .     S
C8    O1     1.24734       .     S
O1    C8     1.24734       .     S
H4    O3     0.81959       .     S
O3    H4     0.81959       .     S
C11   O3     1.24162       .     S
O3    C11    1.24162       .     S
H6    N5     0.91278       .     S
N5    H6     0.91278       .     S
C9    N5     1.39465       .     S
N5    C9     1.39465       .     S
C18   C7     1.35851       .     S
C7    C18    1.35851       .     S
C25   C7     1.52170       .     S
C7    C25    1.52170       .     S
C14   C8     1.48293   1_656     S
C8    C14    1.48293   1_454     S
C22   C9     1.41222       .     S
C9    C22    1.41222       .     S
C22   C10    1.47506       .     S
C10   C22    1.47506       .     S
C23   C10    1.39722       .     S
C10   C23    1.39722       .     S
C26   C10    1.36192       .     S
C10   C26    1.36192       .     S
C15   C11    1.55706       .     S
C11   C15    1.55706       .     S
H13   C12    0.93012       .     S
C12   H13    0.93012       .     S
C14   C12    1.37258       .     S
C12   C14    1.37258       .     S
C18   C12    1.38009       .     S
C12   C18    1.38009       .     S
C16   C15    1.35429       .     S
C15   C16    1.35429       .     S
C28   C15    1.35310       .     S
C15   C28    1.35310       .     S
H17   C16    0.93004       .     S
C16   H17    0.93004       .     S
C23   C16    1.39944       .     S
C16   C23    1.39944       .     S
H19   C18    0.92963       .     S
C18   H19    0.92963       .     S
H21   C20    0.92893       .     S
C20   H21    0.92893       .     S
C22   C20    1.39149       .     S
C20   C22    1.39149       .     S
C25   C20    1.37880       .     S
C20   C25    1.37880       .     S
H24   C23    0.93092       .     S
C23   H24    0.93092       .     S
H27   C26    0.92829       .     S
C26   H27    0.92829       .     S
C28   C26    1.41002       .     S
C26   C28    1.41002       .     S
H29   C28    0.92933       .     S
C28   H29    0.92933       .     S
H31   N30    0.89567       .     S
N30   H31    0.89567       .     S
C42   N30    1.40012       .     S
N30   C42    1.40012       .     S
C55   O32    1.23924       .     S
O32   C55    1.23924       .     S
H34   O33    0.82087       .     S
O33   H34    0.82087       .     S
C52   O33    1.27245       .     S
O33   C52    1.27245       .     S
H36   O35    0.81891       .     S
O35   H36    0.81891       .     S
C55   O35    1.26682       .     S
O35   C55    1.26682       .     S
H38   C37    0.92915       .     S
C37   H38    0.92915       .     S
C39   C37    1.39186       .     S
C37   C39    1.39186       .     S
C40   C37    1.37973       .     S
C37   C40    1.37973       .     S
C44   C39    1.45763   1_455     S
C39   C44    1.45763   1_655     S
C42   C40    1.40012       .     S
C40   C42    1.40012       .     S
C43   C40    1.50167       .     S
C40   C43    1.50167       .     S
C48   C41    1.40029       .     S
C41   C48    1.40029       .     S
C52   C41    1.47445       .     S
C41   C52    1.47445       .     S
C46   C43    1.36219       .     S
C43   C46    1.36219       .     S
C53   C43    1.41412       .     S
C43   C53    1.41412       .     S
C50   C44    1.39842       .     S
C44   C50    1.39842       .     S
C55   C45    1.49332       .     S
C45   C55    1.49332       .     S
C56   C45    1.34109       .     S
C45   C56    1.34109       .     S
C58   C45    1.34351       .     S
C45   C58    1.34351       .     S
H47   C46    0.92881       .     S
C46   H47    0.92881       .     S
C58   C46    1.39648       .     S
C46   C58    1.39648       .     S
H49   C48    0.92977       .     S
C48   H49    0.92977       .     S
C50   C48    1.39603       .     S
C48   C50    1.39603       .     S
H51   C50    0.93021       .     S
C50   H51    0.93021       .     S
H54   C53    0.92960       .     S
C53   H54    0.92960       .     S
C56   C53    1.39866       .     S
C53   C56    1.39866       .     S
H57   C56    0.93159       .     S
C56   H57    0.93159       .     S
H59   C58    0.92989       .     S
C58   H59    0.92989       .     S
H61   O60    0.82104       .     S
O60   H61    0.82104       .     S
C80   O60    1.26536       .     S
O60   C80    1.26536       .     S
H63   N62    0.99443       .     S
N62   H63    0.99443       .     S
C76   N62    1.37866       .     S
N62   C76    1.37866       .     S
C80   O64    1.30070       .     S
O64   C80    1.30070       .     S
H66   C65    0.92958       .     S
C65   H66    0.92958       .     S
C67   C65    1.38741       .     S
C65   C67    1.38741       .     S
C69   C65    1.36494       .     S
C65   C69    1.36494       .     S
C70   C67    1.46842       .     S
C67   C70    1.46842       .     S
C71   C68    1.38524       .     S
C68   C71    1.38524       .     S
C75   C68    1.44718       .     S
C68   C75    1.44718       .     S
C76   C69    1.39954       .     S
C69   C76    1.39954       .     S
C77   C69    1.49501       .     S
C69   C77    1.49501       .     S
C73   C70    1.42684       .     S
C70   C73    1.42684       .     S
H72   C71    0.92892       .     S
C71   H72    0.92892       .     S
C73   C71    1.37102       .     S
C71   C73    1.37102       .     S
H74   C73    0.92931       .     S
C73   H74    0.92931       .     S
O88   C75    1.28091       .     S
C75   O88    1.28091       .     S
C78   C77    1.37523       .     S
C77   C78    1.37523       .     S
C82   C77    1.37211       .     S
C77   C82    1.37211       .     S
H79   C78    0.93039       .     S
C78   H79    0.93039       .     S
C84   C78    1.40682       .     S
C78   C84    1.40682       .     S
C81   C80    1.49741       .     S
C80   C81    1.49741       .     S
C84   C81    1.35547       .     S
C81   C84    1.35547       .     S
C86   C81    1.35719       .     S
C81   C86    1.35719       .     S
H83   C82    0.93061       .     S
C82   H83    0.93061       .     S
C86   C82    1.38064       .     S
C82   C86    1.38064       .     S
H85   C84    0.92950       .     S
C84   H85    0.92950       .     S
H87   C86    0.92875       .     S
C86   H87    0.92875       .     S
H90   O89    0.81907       .     S
O89   H90    0.81907       .     S
C111  O89    1.27459       .     S
O89   C111   1.27459       .     S
C111  O91    1.23610       .     S
O91   C111   1.23610       .     S
C94   O92    1.26741       .     S
O92   C94    1.26741       .     S
C99   C93    1.39519       .     S
C93   C99    1.39519       .     S
N116  C93    1.39139       .     S
C93   N116   1.39139       .     S
C101  C94    1.46721       .     S
C94   C101   1.46721       .     S
C99   C95    1.48622       .     S
C95   C99    1.48622       .     S
C102  C95    1.42421       .     S
C95   C102   1.42421       .     S
C107  C95    1.37154       .     S
C95   C107   1.37154       .     S
C104  C96    1.45946       .     S
C96   C104   1.45946       .     S
C112  C96    1.38170       .     S
C96   C112   1.38170       .     S
H98   C97    0.93018       .     S
C97   H98    0.93018       .     S
C100  C97    1.37688       .     S
C97   C100   1.37688       .     S
C102  C97    1.36810       .     S
C97   C102   1.36810       .     S
C105  C99    1.39657       .     S
C99   C105   1.39657       .     S
C109  C100   1.39008       .     S
C100  C109   1.39008       .     S
C111  C100   1.47330       .     S
C100  C111   1.47330       .     S
C114  C101   1.36965       .     S
C101  C114   1.36965       .     S
H103  C102   0.92927       .     S
C102  H103   0.92927       .     S
C105  C104   1.41389       .     S
C104  C105   1.41389       .     S
H106  C105   0.92977       .     S
C105  H106   0.92977       .     S
H108  C107   0.93105       .     S
C107  H108   0.93105       .     S
C109  C107   1.37902       .     S
C107  C109   1.37902       .     S
H110  C109   0.93043       .     S
C109  H110   0.93043       .     S
H113  C112   0.92920       .     S
C112  H113   0.92920       .     S
C114  C112   1.35770       .     S
C112  C114   1.35770       .     S
H115  C114   0.93096       .     S
C114  H115   0.93096       .     S
H117  N116   0.90625       .     S
N116  H117   0.90625       .     S
H119  N118   0.90839       .     S
N118  H119   0.90839       .     S
C135  N118   1.37146   1_455     S
N118  C135   1.37146   1_655     S
C144  O120   1.25083       .     S
O120  C144   1.25083       .     S
H122  O121   0.82091       .     S
O121  H122   0.82091       .     S
C145  O121   1.28249       .     S
O121  C145   1.28249       .     S
H124  C123   0.92972       .     S
C123  H124   0.92972       .     S
C125  C123   1.37885       .     S
C123  C125   1.37885       .     S
C126  C123   1.39874       .     S
C123  C126   1.39874       .     S
C135  C125   1.41814       .     S
C125  C135   1.41814       .     S
C140  C125   1.51262       .     S
C125  C140   1.51262       .     S
C127  C126   1.45562       .     S
C126  C127   1.45562       .     S
C128  C127   1.40643       .     S
C127  C128   1.40643       .     S
H129  C128   0.92960       .     S
C128  H129   0.92960       .     S
C138  C128   1.39544       .     S
C128  C138   1.39544       .     S
C138  C130   1.39289       .     S
C130  C138   1.39289       .     S
C145  C130   1.49364       .     S
C130  C145   1.49364       .     S
H132  O131   0.81981       .     S
O131  H132   0.81981       .     S
C144  O131   1.29065       .     S
O131  C144   1.29065       .     S
H134  C133   0.93081       .     S
C133  H134   0.93081       .     S
C136  C133   1.37240   1_655     S
C133  C136   1.37240   1_455     S
C140  C133   1.37528       .     S
C133  C140   1.37528       .     S
H137  C136   0.93010       .     S
C136  H137   0.93010       .     S
C141  C136   1.37005       .     S
C136  C141   1.37005       .     S
H139  C138   0.92973       .     S
C138  H139   0.92973       .     S
C142  C140   1.38194       .     S
C140  C142   1.38194       .     S
C144  C141   1.48340       .     S
C141  C144   1.48340       .     S
C146  C141   1.39661       .     S
C141  C146   1.39661       .     S
H143  C142   0.93066       .     S
C142  H143   0.93066       .     S
C146  C142   1.41046   1_655     S
C142  C146   1.41046   1_455     S
H147  C146   0.92958       .     S
C146  H147   0.92958       .     S
C150  C148   1.38695       .     S
C148  C150   1.38695       .     S
N171  C148   1.39506       .     S
C148  N171   1.39506       .     S
C154  C149   1.38587       .     S
C149  C154   1.38587       .     S
C161  C149   1.44541       .     S
C149  C161   1.44541       .     S
C152  C150   1.50963       .     S
C150  C152   1.50963       .     S
C165  C150   1.39043       .     S
C150  C165   1.39043       .     S
C153  C151   1.48524       .     S
C151  C153   1.48524       .     S
C158  C151   1.35511       .     S
C151  C158   1.35511       .     S
C163  C152   1.39809       .     S
C152  C163   1.39809       .     S
C167  C152   1.38742       .     S
C152  C167   1.38742       .     S
O174  C153   1.24909       .     S
C153  O174   1.24909       .     S
H155  C154   0.93108       .     S
C154  H155   0.93108       .     S
C158  C154   1.40567       .     S
C154  C158   1.40567       .     S
H157  C156   0.92889       .     S
C156  H157   0.92889       .     S
C160  C156   1.39780       .     S
C156  C160   1.39780       .     S
C163  C156   1.36731       .     S
C156  C163   1.36731       .     S
H159  C158   0.93093       .     S
C158  H159   0.93093       .     S
C162  C160   1.51304       .     S
C160  C162   1.51304       .     S
C169  C160   1.37475       .     S
C160  C169   1.37475       .     S
C165  C161   1.38705       .     S
C161  C165   1.38705       .     S
O173  C162   1.23670       .     S
C162  O173   1.23670       .     S
O175  C162   1.25809       .     S
C162  O175   1.25809       .     S
H164  C163   0.92839       .     S
C163  H164   0.92839       .     S
H166  C165   0.92891       .     S
C165  H166   0.92891       .     S
H168  C167   0.92944       .     S
C167  H168   0.92944       .     S
C169  C167   1.35532       .     S
C167  C169   1.35532       .     S
H170  C169   0.93129       .     S
C169  H170   0.93129       .     S
H172  N171   0.90673       .     S
N171  H172   0.90673       .     S
H176  O175   0.81995       .     S
O175  H176   0.81995       .     S
