data_I
_chemical_name_common  '/data/user2/wty/HOF/MOFDiff/mofdiff/data/test/282-cp-hp-1'
_cell_length_a  7.34690
_cell_length_b 15.56820
_cell_length_c 25.70650
_cell_angle_alpha 90.00000
_cell_angle_beta  95.10600
_cell_angle_gamma 90.00000
_space_group_name_H-M_alt      'P 1'


loop_
_space_group_symop_operation_xyz
  'x, y, z' 

loop_
_atom_site_label
_atom_site_fract_x
_atom_site_fract_y
_atom_site_fract_z
_atom_site_type_symbol
O0      0.7858  0.34527     0.77     O
O1      0.9857  0.35234  0.70916     O
H2     0.05574  0.33531   0.7336     H
O3      0.7624  0.79577  0.72182     O
O4      0.9662  0.77368  0.66343     O
H5     0.03352  0.79773  0.68608     H
C6      0.0017  0.54383  0.49221     C
C7       0.266  0.48056  0.56883     C
C8      0.2678  0.56843  0.55358     C
C9      0.4093  0.44927  0.60949     C
C10     0.4054  0.62679  0.58209     C
C11     0.8649  0.57547   0.4535     C
C12     0.1401  0.59991  0.51551     C
C13     0.6813  0.39401  0.68494     C
C14     0.6653  0.72218  0.64371     C
C15     0.3679  0.43168  0.66015     C
H16    0.24873  0.43893  0.66892     H
C17      0.825  0.36176  0.72445     C
C18      0.502  0.40339  0.69791     C
H19    0.47233  0.39084   0.7315     H
C20      0.805  0.76712  0.67872     C
C21     0.4862   0.7174  0.65692     C
H22    0.45234  0.74613  0.68629     H
C23     0.8628   0.6694  0.43812     C
H24    0.91992  0.67548  0.40572     H
H25    0.73695  0.68825  0.43175     H
C26     0.3583  0.66992  0.62642     C
H27    0.23894  0.66676  0.63565     H
C28     0.5894  0.43904  0.59713     C
H29      0.619   0.4503  0.56337     H
C30      0.724   0.4123  0.63471     C
H31     0.8438  0.40657  0.62621     H
C32     0.1462  0.69196  0.49775     C
H33    0.22615  0.69621  0.46979     H
H34    0.19777  0.72713  0.52653     H
C35     0.9598  0.72667  0.47869     C
H36    0.88628  0.73209  0.50806     H
H37     0.9734  0.78345    0.464     H
C38     0.7128  0.68204  0.59853     C
H39    0.83166  0.68617  0.58903     H
C40     0.5825  0.63568  0.56749     C
H41    0.61396  0.61044  0.53676     H
O42     0.2142  0.65473     0.23     O
O43     0.0143  0.64766  0.29084     O
H44    0.94426  0.66469   0.2664     H
O45     0.2376  0.20423  0.27818     O
O46     0.0338  0.22632  0.33657     O
H47    0.96648  0.20227  0.31392     H
C48     0.9983  0.45617  0.50779     C
C49      0.734  0.51944  0.43117     C
C50     0.7322  0.43157  0.44642     C
C51     0.5907  0.55073  0.39051     C
C52     0.5946  0.37321  0.41791     C
C53     0.1351  0.42453   0.5465     C
C54     0.8599  0.40009  0.48449     C
C55     0.3187  0.60599  0.31506     C
C56     0.3347  0.27782  0.35629     C
C57     0.6321  0.56832  0.33985     C
H58    0.75127  0.56107  0.33108     H
C59      0.175  0.63824  0.27555     C
C60      0.498  0.59661  0.30209     C
H61    0.52767  0.60916   0.2685     H
C62      0.195  0.23288  0.32128     C
C63     0.5138   0.2826  0.34308     C
H64    0.54766  0.25388  0.31371     H
C65     0.1372   0.3306  0.56188     C
H66    0.08008  0.32452  0.59428     H
H67    0.26305  0.31175  0.56825     H
C68     0.6417  0.33008  0.37358     C
H69    0.76106  0.33324  0.36435     H
C70     0.4106  0.56096  0.40287     C
H71    0.38099   0.5497  0.43663     H
C72      0.276   0.5877  0.36529     C
H73     0.1562  0.59343  0.37379     H
C74     0.8538  0.30804  0.50225     C
H75    0.77384  0.30379  0.53021     H
H76    0.80223  0.27287  0.47347     H
C77     0.0402  0.27333  0.52131     C
H78    0.11372  0.26791  0.49194     H
H79     0.0266  0.21655    0.536     H
C80     0.2872  0.31796  0.40147     C
H81    0.16834  0.31384  0.41097     H
C82     0.4175  0.36432  0.43251     C
H83    0.38604  0.38957  0.46324     H
Cl84   0.53997  0.86806  0.47546    Cl
Cl85   0.87652  0.94426  0.54654    Cl
C86      0.519  0.90033  0.53902     C
C87     0.6673  0.93159   0.5706     C
C88     0.3497  0.89476  0.55876     C
H89    0.24964  0.87461  0.53754     H
C90     0.6446  0.95484  0.62196     C
H91    0.74368  0.97519  0.64349     H
C92      0.476  0.94776  0.64087     C
H93    0.46141  0.96273  0.67527     H
C94     0.3284   0.9184   0.6088     C
H95    0.21387  0.91484  0.62144     H
Cl96   0.90648  0.57117  0.74008    Cl
Cl97   0.85873  0.62971   0.8564    Cl
C98     0.0667  0.63961  0.83015     C
C99     0.2134  0.67411  0.86087     C
H100   0.19862  0.69225  0.89471     H
C101    0.0891   0.6126  0.77982     C
C102    0.3808  0.68144  0.84119     C
H103   0.47864  0.70525  0.86169     H
C104    0.2589   0.6188  0.76057     C
H105   0.27489  0.59944  0.72705     H
C106    0.4046   0.6537  0.79121     C
H107   0.51832  0.65849  0.77821     H
loop_
_geom_bond_atom_site_label_1
_geom_bond_atom_site_label_2
_geom_bond_distance
_geom_bond_site_symmetry_2
_ccdc_geom_bond_type
O0    C17    1.25696       .     S
C17   O0     1.25696       .     S
O1    H2     0.81991   1_655     S
H2    O1     0.81991   1_455     S
O1    C17    1.28551       .     S
C17   O1     1.28551       .     S
O3    C20    1.25943       .     S
C20   O3     1.25943       .     S
O4    H5     0.82010   1_655     S
H5    O4     0.82010   1_455     S
O4    C20    1.28468       .     S
C20   O4     1.28468       .     S
C6    C11    1.43700   1_455     S
C11   C6     1.43700   1_655     S
C6    C12    1.43056       .     S
C12   C6     1.43056       .     S
C6    C48    1.42311   1_455     S
C48   C6     1.42311   1_655     S
C7    C8     1.42343       .     S
C8    C7     1.42343       .     S
C7    C9     1.49744       .     S
C9    C7     1.49744       .     S
C7    C53    1.38456       .     S
C53   C7     1.38456       .     S
C8    C10    1.50091       .     S
C10   C8     1.50091       .     S
C8    C12    1.38373       .     S
C12   C8     1.38373       .     S
C9    C15    1.39067       .     S
C15   C9     1.39067       .     S
C9    C28    1.39712       .     S
C28   C9     1.39712       .     S
C10   C26    1.39263       .     S
C26   C10    1.39263       .     S
C10   C40    1.39280       .     S
C40   C10    1.39280       .     S
C11   C23    1.51455       .     S
C23   C11    1.51455       .     S
C11   C49    1.38456       .     S
C49   C11    1.38456       .     S
C12   C32    1.50590       .     S
C32   C12    1.50590       .     S
C13   C17    1.48573       .     S
C17   C13    1.48573       .     S
C13   C18    1.39497       .     S
C18   C13    1.39497       .     S
C13   C30    1.38524       .     S
C30   C13    1.38524       .     S
C14   C20    1.47934       .     S
C20   C14    1.47934       .     S
C14   C21    1.38989       .     S
C21   C14    1.38989       .     S
C14   C38    1.39044       .     S
C38   C14    1.39044       .     S
C15   H16    0.93019       .     S
H16   C15    0.93019       .     S
C15   C18    1.39163       .     S
C18   C15    1.39163       .     S
C18   H19    0.92994       .     S
H19   C18    0.92994       .     S
C21   H22    0.93027       .     S
H22   C21    0.93027       .     S
C21   C26    1.38310       .     S
C26   C21    1.38310       .     S
C23   H24    0.97005       .     S
H24   C23    0.97005       .     S
C23   H25    0.96999       .     S
H25   C23    0.96999       .     S
C23   C35    1.50272       .     S
C35   C23    1.50272       .     S
C26   H27    0.92992       .     S
H27   C26    0.92992       .     S
C28   H29    0.92994       .     S
H29   C28    0.92994       .     S
C28   C30    1.38362       .     S
C30   C28    1.38362       .     S
C30   H31    0.92985       .     S
H31   C30    0.92985       .     S
C32   H33    0.97013       .     S
H33   C32    0.97013       .     S
C32   H34    0.96995       .     S
H34   C32    0.96995       .     S
C32   C35    1.51263   1_455     S
C35   C32    1.51263   1_655     S
C35   H36    0.97030       .     S
H36   C35    0.97030       .     S
C35   H37    0.96989       .     S
H37   C35    0.96989       .     S
C38   H39    0.92968       .     S
H39   C38    0.92968       .     S
C38   C40    1.39214       .     S
C40   C38    1.39214       .     S
C40   H41    0.92971       .     S
H41   C40    0.92971       .     S
O42   C59    1.25696       .     S
C59   O42    1.25696       .     S
O43   H44    0.81991   1_455     S
H44   O43    0.81991   1_655     S
O43   C59    1.28551       .     S
C59   O43    1.28551       .     S
O45   C62    1.25943       .     S
C62   O45    1.25943       .     S
O46   H47    0.82010   1_455     S
H47   O46    0.82010   1_655     S
O46   C62    1.28468       .     S
C62   O46    1.28468       .     S
C48   C53    1.43700   1_655     S
C53   C48    1.43700   1_455     S
C48   C54    1.43056       .     S
C54   C48    1.43056       .     S
C49   C50    1.42343       .     S
C50   C49    1.42343       .     S
C49   C51    1.49744       .     S
C51   C49    1.49744       .     S
C50   C52    1.50091       .     S
C52   C50    1.50091       .     S
C50   C54    1.38373       .     S
C54   C50    1.38373       .     S
C51   C57    1.39067       .     S
C57   C51    1.39067       .     S
C51   C70    1.39712       .     S
C70   C51    1.39712       .     S
C52   C68    1.39263       .     S
C68   C52    1.39263       .     S
C52   C82    1.39280       .     S
C82   C52    1.39280       .     S
C53   C65    1.51455       .     S
C65   C53    1.51455       .     S
C54   C74    1.50590       .     S
C74   C54    1.50590       .     S
C55   C59    1.48573       .     S
C59   C55    1.48573       .     S
C55   C60    1.39497       .     S
C60   C55    1.39497       .     S
C55   C72    1.38524       .     S
C72   C55    1.38524       .     S
C56   C62    1.47935       .     S
C62   C56    1.47935       .     S
C56   C63    1.38989       .     S
C63   C56    1.38989       .     S
C56   C80    1.39044       .     S
C80   C56    1.39044       .     S
C57   H58    0.93019       .     S
H58   C57    0.93019       .     S
C57   C60    1.39163       .     S
C60   C57    1.39163       .     S
C60   H61    0.92994       .     S
H61   C60    0.92994       .     S
C63   H64    0.93019       .     S
H64   C63    0.93019       .     S
C63   C68    1.38310       .     S
C68   C63    1.38310       .     S
C65   H66    0.97005       .     S
H66   C65    0.97005       .     S
C65   H67    0.96999       .     S
H67   C65    0.96999       .     S
C65   C77    1.50272       .     S
C77   C65    1.50272       .     S
C68   H69    0.92992       .     S
H69   C68    0.92992       .     S
C70   H71    0.92996       .     S
H71   C70    0.92996       .     S
C70   C72    1.38363       .     S
C72   C70    1.38363       .     S
C72   H73    0.92985       .     S
H73   C72    0.92985       .     S
C74   H75    0.97018       .     S
H75   C74    0.97018       .     S
C74   H76    0.96995       .     S
H76   C74    0.96995       .     S
C74   C77    1.51263   1_655     S
C77   C74    1.51263   1_455     S
C77   H78    0.97030       .     S
H78   C77    0.97030       .     S
C77   H79    0.96989       .     S
H79   C77    0.96989       .     S
C80   H81    0.92967       .     S
H81   C80    0.92967       .     S
C80   C82    1.39214       .     S
C82   C80    1.39214       .     S
C82   H83    0.92978       .     S
H83   C82    0.92978       .     S
Cl84  C86    1.72933       .     S
C86   Cl84   1.72933       .     S
Cl85  C87    1.71855       .     S
C87   Cl85   1.71855       .     S
C86   C87    1.38764       .     S
C87   C86    1.38764       .     S
C86   C88    1.38726       .     S
C88   C86    1.38726       .     S
C87   C90    1.39326       .     S
C90   C87    1.39326       .     S
C88   H89    0.93006       .     S
H89   C88    0.93006       .     S
C88   C94    1.36032       .     S
C94   C88    1.36032       .     S
C90   H91    0.92998       .     S
H91   C90    0.92998       .     S
C90   C92    1.37476       .     S
C92   C90    1.37476       .     S
C92   H93    0.92988       .     S
H93   C92    0.92988       .     S
C92   C94    1.38035       .     S
C94   C92    1.38035       .     S
C94   H95    0.93024       .     S
H95   C94    0.93024       .     S
Cl96  C101   1.73660   1_655     S
C101  Cl96   1.73660   1_455     S
Cl97  C98    1.73125   1_655     S
C98   Cl97   1.73125   1_455     S
C98   C99    1.38645       .     S
C99   C98    1.38645       .     S
C98   C101   1.38410       .     S
C101  C98    1.38410       .     S
C99   H100   0.93011       .     S
H100  C99    0.93011       .     S
C99   C102   1.37561       .     S
C102  C99    1.37561       .     S
C101  C104   1.38576       .     S
C104  C101   1.38576       .     S
C102  H103   0.92973       .     S
H103  C102   0.92973       .     S
C102  C106   1.38123       .     S
C106  C102   1.38123       .     S
C104  H105   0.93014       .     S
H105  C104   0.93014       .     S
C104  C106   1.38252       .     S
C106  C104   1.38252       .     S
C106  H107   0.93004       .     S
H107  C106   0.93004       .     S
C17   O0     1.25696       .     S
O0    C17    1.25696       .     S
H2    O1     0.81991   1_455     S
O1    H2     0.81991   1_655     S
C17   O1     1.28551       .     S
O1    C17    1.28551       .     S
C20   O3     1.25943       .     S
O3    C20    1.25943       .     S
H5    O4     0.82010   1_455     S
O4    H5     0.82010   1_655     S
C20   O4     1.28468       .     S
O4    C20    1.28468       .     S
C11   C6     1.43700   1_655     S
C6    C11    1.43700   1_455     S
C12   C6     1.43056       .     S
C6    C12    1.43056       .     S
C48   C6     1.42311   1_655     S
C6    C48    1.42311   1_455     S
C8    C7     1.42343       .     S
C7    C8     1.42343       .     S
C9    C7     1.49744       .     S
C7    C9     1.49744       .     S
C53   C7     1.38456       .     S
C7    C53    1.38456       .     S
C10   C8     1.50091       .     S
C8    C10    1.50091       .     S
C12   C8     1.38373       .     S
C8    C12    1.38373       .     S
C15   C9     1.39067       .     S
C9    C15    1.39067       .     S
C28   C9     1.39712       .     S
C9    C28    1.39712       .     S
C26   C10    1.39263       .     S
C10   C26    1.39263       .     S
C40   C10    1.39280       .     S
C10   C40    1.39280       .     S
C23   C11    1.51455       .     S
C11   C23    1.51455       .     S
C49   C11    1.38456       .     S
C11   C49    1.38456       .     S
C32   C12    1.50590       .     S
C12   C32    1.50590       .     S
C17   C13    1.48573       .     S
C13   C17    1.48573       .     S
C18   C13    1.39497       .     S
C13   C18    1.39497       .     S
C30   C13    1.38524       .     S
C13   C30    1.38524       .     S
C20   C14    1.47934       .     S
C14   C20    1.47934       .     S
C21   C14    1.38989       .     S
C14   C21    1.38989       .     S
C38   C14    1.39044       .     S
C14   C38    1.39044       .     S
H16   C15    0.93019       .     S
C15   H16    0.93019       .     S
C18   C15    1.39163       .     S
C15   C18    1.39163       .     S
H19   C18    0.92994       .     S
C18   H19    0.92994       .     S
H22   C21    0.93027       .     S
C21   H22    0.93027       .     S
C26   C21    1.38310       .     S
C21   C26    1.38310       .     S
H24   C23    0.97005       .     S
C23   H24    0.97005       .     S
H25   C23    0.96999       .     S
C23   H25    0.96999       .     S
C35   C23    1.50272       .     S
C23   C35    1.50272       .     S
H27   C26    0.92992       .     S
C26   H27    0.92992       .     S
H29   C28    0.92994       .     S
C28   H29    0.92994       .     S
C30   C28    1.38362       .     S
C28   C30    1.38362       .     S
H31   C30    0.92985       .     S
C30   H31    0.92985       .     S
H33   C32    0.97013       .     S
C32   H33    0.97013       .     S
H34   C32    0.96995       .     S
C32   H34    0.96995       .     S
C35   C32    1.51263   1_655     S
C32   C35    1.51263   1_455     S
H36   C35    0.97030       .     S
C35   H36    0.97030       .     S
H37   C35    0.96989       .     S
C35   H37    0.96989       .     S
H39   C38    0.92968       .     S
C38   H39    0.92968       .     S
C40   C38    1.39214       .     S
C38   C40    1.39214       .     S
H41   C40    0.92971       .     S
C40   H41    0.92971       .     S
C59   O42    1.25696       .     S
O42   C59    1.25696       .     S
H44   O43    0.81991   1_655     S
O43   H44    0.81991   1_455     S
C59   O43    1.28551       .     S
O43   C59    1.28551       .     S
C62   O45    1.25943       .     S
O45   C62    1.25943       .     S
H47   O46    0.82010   1_655     S
O46   H47    0.82010   1_455     S
C62   O46    1.28468       .     S
O46   C62    1.28468       .     S
C53   C48    1.43700   1_455     S
C48   C53    1.43700   1_655     S
C54   C48    1.43056       .     S
C48   C54    1.43056       .     S
C50   C49    1.42343       .     S
C49   C50    1.42343       .     S
C51   C49    1.49744       .     S
C49   C51    1.49744       .     S
C52   C50    1.50091       .     S
C50   C52    1.50091       .     S
C54   C50    1.38373       .     S
C50   C54    1.38373       .     S
C57   C51    1.39067       .     S
C51   C57    1.39067       .     S
C70   C51    1.39712       .     S
C51   C70    1.39712       .     S
C68   C52    1.39263       .     S
C52   C68    1.39263       .     S
C82   C52    1.39280       .     S
C52   C82    1.39280       .     S
C65   C53    1.51455       .     S
C53   C65    1.51455       .     S
C74   C54    1.50590       .     S
C54   C74    1.50590       .     S
C59   C55    1.48573       .     S
C55   C59    1.48573       .     S
C60   C55    1.39497       .     S
C55   C60    1.39497       .     S
C72   C55    1.38524       .     S
C55   C72    1.38524       .     S
C62   C56    1.47935       .     S
C56   C62    1.47935       .     S
C63   C56    1.38989       .     S
C56   C63    1.38989       .     S
C80   C56    1.39044       .     S
C56   C80    1.39044       .     S
H58   C57    0.93019       .     S
C57   H58    0.93019       .     S
C60   C57    1.39163       .     S
C57   C60    1.39163       .     S
H61   C60    0.92994       .     S
C60   H61    0.92994       .     S
H64   C63    0.93019       .     S
C63   H64    0.93019       .     S
C68   C63    1.38310       .     S
C63   C68    1.38310       .     S
H66   C65    0.97005       .     S
C65   H66    0.97005       .     S
H67   C65    0.96999       .     S
C65   H67    0.96999       .     S
C77   C65    1.50272       .     S
C65   C77    1.50272       .     S
H69   C68    0.92992       .     S
C68   H69    0.92992       .     S
H71   C70    0.92996       .     S
C70   H71    0.92996       .     S
C72   C70    1.38363       .     S
C70   C72    1.38363       .     S
H73   C72    0.92985       .     S
C72   H73    0.92985       .     S
H75   C74    0.97018       .     S
C74   H75    0.97018       .     S
H76   C74    0.96995       .     S
C74   H76    0.96995       .     S
C77   C74    1.51263   1_455     S
C74   C77    1.51263   1_655     S
H78   C77    0.97030       .     S
C77   H78    0.97030       .     S
H79   C77    0.96989       .     S
C77   H79    0.96989       .     S
H81   C80    0.92967       .     S
C80   H81    0.92967       .     S
C82   C80    1.39214       .     S
C80   C82    1.39214       .     S
H83   C82    0.92978       .     S
C82   H83    0.92978       .     S
C86   Cl84   1.72933       .     S
Cl84  C86    1.72933       .     S
C87   Cl85   1.71855       .     S
Cl85  C87    1.71855       .     S
C87   C86    1.38764       .     S
C86   C87    1.38764       .     S
C88   C86    1.38726       .     S
C86   C88    1.38726       .     S
C90   C87    1.39326       .     S
C87   C90    1.39326       .     S
H89   C88    0.93006       .     S
C88   H89    0.93006       .     S
C94   C88    1.36032       .     S
C88   C94    1.36032       .     S
H91   C90    0.92998       .     S
C90   H91    0.92998       .     S
C92   C90    1.37476       .     S
C90   C92    1.37476       .     S
H93   C92    0.92988       .     S
C92   H93    0.92988       .     S
C94   C92    1.38035       .     S
C92   C94    1.38035       .     S
H95   C94    0.93024       .     S
C94   H95    0.93024       .     S
C101  Cl96   1.73660   1_455     S
Cl96  C101   1.73660   1_655     S
C98   Cl97   1.73125   1_455     S
Cl97  C98    1.73125   1_655     S
C99   C98    1.38645       .     S
C98   C99    1.38645       .     S
C101  C98    1.38410       .     S
C98   C101   1.38410       .     S
H100  C99    0.93011       .     S
C99   H100   0.93011       .     S
C102  C99    1.37561       .     S
C99   C102   1.37561       .     S
C104  C101   1.38576       .     S
C101  C104   1.38576       .     S
H103  C102   0.92973       .     S
C102  H103   0.92973       .     S
C106  C102   1.38123       .     S
C102  C106   1.38123       .     S
H105  C104   0.93014       .     S
C104  H105   0.93014       .     S
C106  C104   1.38252       .     S
C104  C106   1.38252       .     S
H107  C106   0.93004       .     S
C106  H107   0.93004       .     S
