data_I
_chemical_name_common  '/data/user2/wty/HOF/MOFDiff/mofdiff/data/test/282-ppy-1_01_0000'
_cell_length_a  7.37770
_cell_length_b 15.62410
_cell_length_c 25.09210
_cell_angle_alpha 90.00000
_cell_angle_beta  94.15100
_cell_angle_gamma 90.00000
_space_group_name_H-M_alt      'P 1'


loop_
_space_group_symop_operation_xyz
  'x, y, z' 

loop_
_atom_site_label
_atom_site_fract_x
_atom_site_fract_y
_atom_site_fract_z
_atom_site_type_symbol
O0     0.99656  0.35303  0.29786     O
H1     0.92264  0.33826  0.27249     H
O2     0.19386  0.34256   0.2346     O
O3     0.24927  0.79991  0.27479     O
O4     0.04882  0.77719  0.33596     O
H5     0.98042    0.804  0.31353     H
C6      0.1499  0.57705  0.54082     C
C7      0.0073  0.54461  0.50505     C
C8      0.8793  0.60219   0.4793     C
C9      0.7352  0.56839  0.44316     C
C10     0.5751  0.44872  0.39471     C
C11     0.7214  0.48237  0.43362     C
C12     0.6037  0.62864  0.41471     C
C13     0.3014  0.39094  0.32082     C
C14     0.1623  0.66566  0.54968     C
H15    0.25582  0.68785  0.57382     H
C16     0.8958  0.69016  0.48974     C
H17    0.80866  0.72877  0.47367     H
C18     0.3486   0.7268  0.35446     C
C19     0.0384  0.72124  0.52331     C
H20    0.05168  0.78123   0.5284     H
C21     0.1577  0.35987  0.28083     C
C22     0.4766  0.40299  0.30513     C
H23    0.50343  0.39157  0.26935     H
C24      0.526  0.72154  0.33961     C
H25    0.56053  0.75109  0.30884     H
C26     0.6528  0.67282  0.36999     C
H27    0.77446  0.66975  0.36004     H
C28     0.6125  0.43191  0.34223     C
H29    0.73217  0.44024  0.33154     H
C30     0.2102  0.77169   0.3189     C
C31     0.2632  0.40649  0.37332     C
H32    0.14364  0.39797  0.38404     H
C33     0.4002  0.43459  0.41023     C
H34    0.37426  0.44418  0.44628     H
C35     0.3011  0.68766  0.40105     C
H36    0.18179  0.69414  0.41241     H
C37      0.429  0.63883  0.43113     C
H38    0.39661  0.61226  0.46314     H
O39    0.00344  0.64697  0.70214     O
H40    0.07736  0.66174  0.72751     H
O41    0.80614  0.65744   0.7654     O
O42    0.75073  0.20009  0.72521     O
O43    0.95118  0.22281  0.66404     O
H44    0.01958    0.196  0.68647     H
C45     0.8501  0.42295  0.45918     C
C46     0.9927  0.45539  0.49495     C
C47     0.1207  0.39781   0.5207     C
C48     0.2648  0.43161  0.55684     C
C49     0.4249  0.55128  0.60529     C
C50     0.2786  0.51763  0.56638     C
C51     0.3963  0.37136  0.58529     C
C52     0.6986  0.60906  0.67918     C
C53     0.8377  0.33434  0.45032     C
H54    0.74418  0.31215  0.42618     H
C55     0.1042  0.30984  0.51026     C
H56    0.19134  0.27123  0.52633     H
C57     0.6514   0.2732  0.64554     C
C58     0.9616  0.27876  0.47669     C
H59    0.94832  0.21877   0.4716     H
C60     0.8423  0.64013  0.71917     C
C61     0.5234  0.59701  0.69487     C
H62    0.49657  0.60843  0.73065     H
C63      0.474  0.27846  0.66039     C
H64    0.43947  0.24891  0.69116     H
C65     0.3472  0.32718  0.63001     C
H66    0.22554  0.33026  0.63996     H
C67     0.3875  0.56809  0.65777     C
H68    0.26783  0.55976  0.66846     H
C69     0.7898  0.22831   0.6811     C
C70     0.7368  0.59351  0.62668     C
H71    0.85636  0.60203  0.61596     H
C72     0.5998  0.56541  0.58977     C
H73    0.62574  0.55582  0.55372     H
C74     0.6989  0.31234  0.59895     C
H75    0.81821  0.30586  0.58759     H
C76      0.571  0.36117  0.56887     C
H77    0.60339  0.38774  0.53686     H
Cl78     0.109  0.56925  0.25815    Cl
Cl79   0.15622  0.63832  0.14135    Cl
C80     0.9261  0.61028  0.21923     C
C81     0.9484    0.642  0.16831     C
C82     0.6327  0.67958  0.15912     C
H83    0.53235  0.70434  0.13883     H
C84     0.8005  0.67663  0.13841     C
H85    0.81507  0.69832   0.1036     H
C86     0.7566  0.61188  0.23913     C
H87    0.74051  0.58896  0.27354     H
C88     0.6099  0.64674  0.20916     C
H89    0.49358  0.64803  0.22308     H
Cl90    0.4623  0.86682  0.52548    Cl
Cl91   0.13061   0.9442  0.45358    Cl
C92     0.4862   0.9002  0.46091     C
C93      0.341  0.93232  0.42894     C
C94     0.3652  0.95725   0.3769     C
H95    0.26545  0.97879  0.35484     H
C96     0.6561  0.89558  0.44073     C
H97    0.75704  0.87507  0.46272     H
C98     0.6792  0.92038  0.38937     C
H99    0.79593  0.91661  0.37584     H
C100    0.5345  0.95073   0.3572     C
H101   0.55114  0.96719  0.32144     H
loop_
_geom_bond_atom_site_label_1
_geom_bond_atom_site_label_2
_geom_bond_distance
_geom_bond_site_symmetry_2
_ccdc_geom_bond_type
O0    H1     0.84003       .     S
H1    O0     0.84003       .     S
O0    C21    1.29650   1_655     S
C21   O0     1.29650   1_455     S
O2    C21    1.23884       .     S
C21   O2     1.23884       .     S
O3    C30    1.24447       .     S
C30   O3     1.24447       .     S
O4    H5     0.84010   1_455     S
H5    O4     0.84010   1_655     S
O4    C30    1.29691       .     S
C30   O4     1.29691       .     S
C6    C7     1.42569       .     S
C7    C6     1.42569       .     S
C6    C14    1.40412       .     S
C14   C6     1.40412       .     S
C6    C50    1.44452       .     S
C50   C6     1.44452       .     S
C7    C8     1.42488   1_455     S
C8    C7     1.42488   1_655     S
C7    C46    1.41953   1_455     S
C46   C7     1.41953   1_655     S
C8    C9     1.44634       .     S
C9    C8     1.44634       .     S
C8    C16    1.40283       .     S
C16   C8     1.40283       .     S
C9    C11    1.36764       .     S
C11   C9     1.36764       .     S
C9    C12    1.49557       .     S
C12   C9     1.49557       .     S
C10   C11    1.49736       .     S
C11   C10    1.49736       .     S
C10   C28    1.38988       .     S
C28   C10    1.38988       .     S
C10   C33    1.39218       .     S
C33   C10    1.39218       .     S
C11   C45    1.44452       .     S
C45   C11    1.44452       .     S
C12   C26    1.38769       .     S
C26   C12    1.38769       .     S
C12   C37    1.39040       .     S
C37   C12    1.39040       .     S
C13   C21    1.48745       .     S
C21   C13    1.48745       .     S
C13   C22    1.39099       .     S
C22   C13    1.39099       .     S
C13   C31    1.38837       .     S
C31   C13    1.38837       .     S
C14   H15    0.95008       .     S
H15   C14    0.95008       .     S
C14   C19    1.39281       .     S
C19   C14    1.39281       .     S
C16   H17    0.94989       .     S
H17   C16    0.94989       .     S
C16   C19    1.38704   1_655     S
C19   C16    1.38704   1_455     S
C18   C24    1.38895       .     S
C24   C18    1.38895       .     S
C18   C30    1.48282       .     S
C30   C18    1.48282       .     S
C18   C35    1.38663       .     S
C35   C18    1.38663       .     S
C19   H20    0.95006       .     S
H20   C19    0.95006       .     S
C22   H23    0.95015       .     S
H23   C22    0.95015       .     S
C22   C28    1.39317       .     S
C28   C22    1.39317       .     S
C24   H25    0.95008       .     S
H25   C24    0.95008       .     S
C24   C26    1.39012       .     S
C26   C24    1.39012       .     S
C26   H27    0.95011       .     S
H27   C26    0.95011       .     S
C28   H29    0.95009       .     S
H29   C28    0.95009       .     S
C31   H32    0.94999       .     S
H32   C31    0.94999       .     S
C31   C33    1.39161       .     S
C33   C31    1.39161       .     S
C33   H34    0.94994       .     S
H34   C33    0.94994       .     S
C35   H36    0.95007       .     S
H36   C35    0.95007       .     S
C35   C37    1.39249       .     S
C37   C35    1.39249       .     S
C37   H38    0.94992       .     S
H38   C37    0.94992       .     S
O39   H40    0.84003       .     S
H40   O39    0.84003       .     S
O39   C60    1.29650   1_455     S
C60   O39    1.29650   1_655     S
O41   C60    1.23884       .     S
C60   O41    1.23884       .     S
O42   C69    1.24447       .     S
C69   O42    1.24447       .     S
O43   H44    0.84010   1_655     S
H44   O43    0.84010   1_455     S
O43   C69    1.29691       .     S
C69   O43    1.29691       .     S
C45   C46    1.42570       .     S
C46   C45    1.42570       .     S
C45   C53    1.40412       .     S
C53   C45    1.40412       .     S
C46   C47    1.42488   1_655     S
C47   C46    1.42488   1_455     S
C47   C48    1.44634       .     S
C48   C47    1.44634       .     S
C47   C55    1.40283       .     S
C55   C47    1.40283       .     S
C48   C50    1.36764       .     S
C50   C48    1.36764       .     S
C48   C51    1.49557       .     S
C51   C48    1.49557       .     S
C49   C50    1.49736       .     S
C50   C49    1.49736       .     S
C49   C67    1.38988       .     S
C67   C49    1.38988       .     S
C49   C72    1.39218       .     S
C72   C49    1.39218       .     S
C51   C65    1.38769       .     S
C65   C51    1.38769       .     S
C51   C76    1.39040       .     S
C76   C51    1.39040       .     S
C52   C60    1.48744       .     S
C60   C52    1.48744       .     S
C52   C61    1.39099       .     S
C61   C52    1.39099       .     S
C52   C70    1.38837       .     S
C70   C52    1.38837       .     S
C53   H54    0.95008       .     S
H54   C53    0.95008       .     S
C53   C58    1.39281       .     S
C58   C53    1.39281       .     S
C55   H56    0.94989       .     S
H56   C55    0.94989       .     S
C55   C58    1.38704   1_455     S
C58   C55    1.38704   1_655     S
C57   C63    1.38894       .     S
C63   C57    1.38894       .     S
C57   C69    1.48282       .     S
C69   C57    1.48282       .     S
C57   C74    1.38663       .     S
C74   C57    1.38663       .     S
C58   H59    0.95006       .     S
H59   C58    0.95006       .     S
C61   H62    0.95015       .     S
H62   C61    0.95015       .     S
C61   C67    1.39317       .     S
C67   C61    1.39317       .     S
C63   H64    0.95008       .     S
H64   C63    0.95008       .     S
C63   C65    1.39012       .     S
C65   C63    1.39012       .     S
C65   H66    0.95012       .     S
H66   C65    0.95012       .     S
C67   H68    0.95009       .     S
H68   C67    0.95009       .     S
C70   H71    0.94999       .     S
H71   C70    0.94999       .     S
C70   C72    1.39161       .     S
C72   C70    1.39161       .     S
C72   H73    0.94994       .     S
H73   C72    0.94994       .     S
C74   H75    0.95007       .     S
H75   C74    0.95007       .     S
C74   C76    1.39249       .     S
C76   C74    1.39249       .     S
C76   H77    0.94992       .     S
H77   C76    0.94992       .     S
Cl78  C80    1.73053   1_455     S
C80   Cl78   1.73053   1_655     S
Cl79  C81    1.72102   1_455     S
C81   Cl79   1.72102   1_655     S
C80   C81    1.39126       .     S
C81   C80    1.39126       .     S
C80   C86    1.37991       .     S
C86   C80    1.37991       .     S
C81   C84    1.38843       .     S
C84   C81    1.38843       .     S
C82   H83    0.94995       .     S
H83   C82    0.94995       .     S
C82   C84    1.37764       .     S
C84   C82    1.37764       .     S
C82   C88    1.37793       .     S
C88   C82    1.37793       .     S
C84   H85    0.95022       .     S
H85   C84    0.95022       .     S
C86   H87    0.95008       .     S
H87   C86    0.95008       .     S
C86   C88    1.38410       .     S
C88   C86    1.38410       .     S
C88   H89    0.94987       .     S
H89   C88    0.94987       .     S
Cl90  C92    1.72322       .     S
C92   Cl90   1.72322       .     S
Cl91  C93    1.72190       .     S
C93   Cl91   1.72190       .     S
C92   C93    1.38511       .     S
C93   C92    1.38511       .     S
C92   C96    1.38733       .     S
C96   C92    1.38733       .     S
C93   C94    1.38652       .     S
C94   C93    1.38652       .     S
C94   H95    0.94988       .     S
H95   C94    0.94988       .     S
C94   C100   1.37993       .     S
C100  C94    1.37993       .     S
C96   H97    0.94986       .     S
H97   C96    0.94986       .     S
C96   C98    1.36814       .     S
C98   C96    1.36814       .     S
C98   H99    0.95012       .     S
H99   C98    0.95012       .     S
C98   C100   1.37527       .     S
C100  C98    1.37527       .     S
C100  H101   0.94989       .     S
H101  C100   0.94989       .     S
H1    O0     0.84003       .     S
O0    H1     0.84003       .     S
C21   O0     1.29650   1_455     S
O0    C21    1.29650   1_655     S
C21   O2     1.23884       .     S
O2    C21    1.23884       .     S
C30   O3     1.24447       .     S
O3    C30    1.24447       .     S
H5    O4     0.84010   1_655     S
O4    H5     0.84010   1_455     S
C30   O4     1.29691       .     S
O4    C30    1.29691       .     S
C7    C6     1.42569       .     S
C6    C7     1.42569       .     S
C14   C6     1.40412       .     S
C6    C14    1.40412       .     S
C50   C6     1.44452       .     S
C6    C50    1.44452       .     S
C8    C7     1.42488   1_655     S
C7    C8     1.42488   1_455     S
C46   C7     1.41953   1_655     S
C7    C46    1.41953   1_455     S
C9    C8     1.44634       .     S
C8    C9     1.44634       .     S
C16   C8     1.40283       .     S
C8    C16    1.40283       .     S
C11   C9     1.36764       .     S
C9    C11    1.36764       .     S
C12   C9     1.49557       .     S
C9    C12    1.49557       .     S
C11   C10    1.49736       .     S
C10   C11    1.49736       .     S
C28   C10    1.38988       .     S
C10   C28    1.38988       .     S
C33   C10    1.39218       .     S
C10   C33    1.39218       .     S
C45   C11    1.44452       .     S
C11   C45    1.44452       .     S
C26   C12    1.38769       .     S
C12   C26    1.38769       .     S
C37   C12    1.39040       .     S
C12   C37    1.39040       .     S
C21   C13    1.48745       .     S
C13   C21    1.48745       .     S
C22   C13    1.39099       .     S
C13   C22    1.39099       .     S
C31   C13    1.38837       .     S
C13   C31    1.38837       .     S
H15   C14    0.95008       .     S
C14   H15    0.95008       .     S
C19   C14    1.39281       .     S
C14   C19    1.39281       .     S
H17   C16    0.94989       .     S
C16   H17    0.94989       .     S
C19   C16    1.38704   1_455     S
C16   C19    1.38704   1_655     S
C24   C18    1.38895       .     S
C18   C24    1.38895       .     S
C30   C18    1.48282       .     S
C18   C30    1.48282       .     S
C35   C18    1.38663       .     S
C18   C35    1.38663       .     S
H20   C19    0.95006       .     S
C19   H20    0.95006       .     S
H23   C22    0.95015       .     S
C22   H23    0.95015       .     S
C28   C22    1.39317       .     S
C22   C28    1.39317       .     S
H25   C24    0.95008       .     S
C24   H25    0.95008       .     S
C26   C24    1.39012       .     S
C24   C26    1.39012       .     S
H27   C26    0.95011       .     S
C26   H27    0.95011       .     S
H29   C28    0.95009       .     S
C28   H29    0.95009       .     S
H32   C31    0.94999       .     S
C31   H32    0.94999       .     S
C33   C31    1.39161       .     S
C31   C33    1.39161       .     S
H34   C33    0.94994       .     S
C33   H34    0.94994       .     S
H36   C35    0.95007       .     S
C35   H36    0.95007       .     S
C37   C35    1.39249       .     S
C35   C37    1.39249       .     S
H38   C37    0.94992       .     S
C37   H38    0.94992       .     S
H40   O39    0.84003       .     S
O39   H40    0.84003       .     S
C60   O39    1.29650   1_655     S
O39   C60    1.29650   1_455     S
C60   O41    1.23884       .     S
O41   C60    1.23884       .     S
C69   O42    1.24447       .     S
O42   C69    1.24447       .     S
H44   O43    0.84010   1_455     S
O43   H44    0.84010   1_655     S
C69   O43    1.29691       .     S
O43   C69    1.29691       .     S
C46   C45    1.42570       .     S
C45   C46    1.42570       .     S
C53   C45    1.40412       .     S
C45   C53    1.40412       .     S
C47   C46    1.42488   1_455     S
C46   C47    1.42488   1_655     S
C48   C47    1.44634       .     S
C47   C48    1.44634       .     S
C55   C47    1.40283       .     S
C47   C55    1.40283       .     S
C50   C48    1.36764       .     S
C48   C50    1.36764       .     S
C51   C48    1.49557       .     S
C48   C51    1.49557       .     S
C50   C49    1.49736       .     S
C49   C50    1.49736       .     S
C67   C49    1.38988       .     S
C49   C67    1.38988       .     S
C72   C49    1.39218       .     S
C49   C72    1.39218       .     S
C65   C51    1.38769       .     S
C51   C65    1.38769       .     S
C76   C51    1.39040       .     S
C51   C76    1.39040       .     S
C60   C52    1.48744       .     S
C52   C60    1.48744       .     S
C61   C52    1.39099       .     S
C52   C61    1.39099       .     S
C70   C52    1.38837       .     S
C52   C70    1.38837       .     S
H54   C53    0.95008       .     S
C53   H54    0.95008       .     S
C58   C53    1.39281       .     S
C53   C58    1.39281       .     S
H56   C55    0.94989       .     S
C55   H56    0.94989       .     S
C58   C55    1.38704   1_655     S
C55   C58    1.38704   1_455     S
C63   C57    1.38894       .     S
C57   C63    1.38894       .     S
C69   C57    1.48282       .     S
C57   C69    1.48282       .     S
C74   C57    1.38663       .     S
C57   C74    1.38663       .     S
H59   C58    0.95006       .     S
C58   H59    0.95006       .     S
H62   C61    0.95015       .     S
C61   H62    0.95015       .     S
C67   C61    1.39317       .     S
C61   C67    1.39317       .     S
H64   C63    0.95008       .     S
C63   H64    0.95008       .     S
C65   C63    1.39012       .     S
C63   C65    1.39012       .     S
H66   C65    0.95012       .     S
C65   H66    0.95012       .     S
H68   C67    0.95009       .     S
C67   H68    0.95009       .     S
H71   C70    0.94999       .     S
C70   H71    0.94999       .     S
C72   C70    1.39161       .     S
C70   C72    1.39161       .     S
H73   C72    0.94994       .     S
C72   H73    0.94994       .     S
H75   C74    0.95007       .     S
C74   H75    0.95007       .     S
C76   C74    1.39249       .     S
C74   C76    1.39249       .     S
H77   C76    0.94992       .     S
C76   H77    0.94992       .     S
C80   Cl78   1.73053   1_655     S
Cl78  C80    1.73053   1_455     S
C81   Cl79   1.72102   1_655     S
Cl79  C81    1.72102   1_455     S
C81   C80    1.39126       .     S
C80   C81    1.39126       .     S
C86   C80    1.37991       .     S
C80   C86    1.37991       .     S
C84   C81    1.38843       .     S
C81   C84    1.38843       .     S
H83   C82    0.94995       .     S
C82   H83    0.94995       .     S
C84   C82    1.37764       .     S
C82   C84    1.37764       .     S
C88   C82    1.37793       .     S
C82   C88    1.37793       .     S
H85   C84    0.95022       .     S
C84   H85    0.95022       .     S
H87   C86    0.95008       .     S
C86   H87    0.95008       .     S
C88   C86    1.38410       .     S
C86   C88    1.38410       .     S
H89   C88    0.94987       .     S
C88   H89    0.94987       .     S
C92   Cl90   1.72322       .     S
Cl90  C92    1.72322       .     S
C93   Cl91   1.72190       .     S
Cl91  C93    1.72190       .     S
C93   C92    1.38511       .     S
C92   C93    1.38511       .     S
C96   C92    1.38733       .     S
C92   C96    1.38733       .     S
C94   C93    1.38652       .     S
C93   C94    1.38652       .     S
H95   C94    0.94988       .     S
C94   H95    0.94988       .     S
C100  C94    1.37993       .     S
C94   C100   1.37993       .     S
H97   C96    0.94986       .     S
C96   H97    0.94986       .     S
C98   C96    1.36814       .     S
C96   C98    1.36814       .     S
H99   C98    0.95012       .     S
C98   H99    0.95012       .     S
C100  C98    1.37527       .     S
C98   C100   1.37527       .     S
H101  C100   0.94989       .     S
C100  H101   0.94989       .     S
