data_I
_chemical_name_common  '/data/user2/wty/HOF/MOFDiff/mofdiff/data/test/282-cp-py-1'
_cell_length_a  7.37230
_cell_length_b 15.66340
_cell_length_c 25.12880
_cell_angle_alpha 90.00000
_cell_angle_beta  94.14400
_cell_angle_gamma 90.00000
_space_group_name_H-M_alt      'P 1'


loop_
_space_group_symop_operation_xyz
  'x, y, z' 

loop_
_atom_site_label
_atom_site_fract_x
_atom_site_fract_y
_atom_site_fract_z
_atom_site_type_symbol
O0     0.80828  0.34346  0.76507     O
O1     0.00558  0.35358  0.70174     O
H2     0.07597  0.33546  0.72588     H
O3     0.94964   0.7785  0.66439     O
H4     0.01646  0.80429   0.6864     H
O5     0.74849  0.80067  0.72549     O
C6      0.1191  0.60228  0.52106     C
C7     0.99197   0.5446   0.4952     C
C8     0.42618   0.4495  0.60503     C
C9     0.84848  0.57667  0.45949     C
C10    0.27973  0.48296  0.56635     C
C11    0.39523  0.62923  0.58545     C
C12    0.83546  0.66513   0.4509     C
H13    0.74255   0.6867  0.42772     H
C14     0.1011  0.69002  0.51081     C
H15    0.18474  0.72797   0.5271     H
C16    0.26402  0.56887  0.55702     C
C17    0.64978   0.7278  0.64581     C
C18    0.70052   0.3917  0.67882     C
C19     0.3892  0.43328  0.65773     C
H20    0.27231  0.44187  0.66833     H
C21     0.8444  0.36083  0.71869     C
C22     0.9598  0.72085  0.47661     C
H23    0.94816   0.7793  0.47084     H
C24    0.34519  0.67375   0.6302     C
H25    0.22591  0.67088  0.63985     H
C26     0.7879  0.77268  0.68142     C
C27     0.4721  0.72229  0.66045     C
H28    0.43804  0.75112  0.69052     H
C29     0.5253  0.40437  0.69465     C
H30    0.49935  0.39356  0.72969     H
C31     0.6011  0.43472  0.58946     C
H32    0.62619  0.44373  0.55416     H
C33      0.698  0.68825  0.59922     C
H34    0.81502  0.69443  0.58822     H
C35     0.7385  0.40663  0.62616     C
H36    0.85531  0.39785  0.61555     H
C37     0.5706  0.63956  0.56928     C
H38     0.6028  0.61354  0.53806     H
O39    0.19172  0.65654  0.23493     O
O40    0.99442  0.64642  0.29826     O
H41    0.92403  0.66454  0.27412     H
O42    0.05036   0.2215  0.33561     O
H43    0.98354  0.19571   0.3136     H
O44    0.25151  0.19933  0.27451     O
C45     0.8809  0.39772  0.47894     C
C46    0.00803   0.4554   0.5048     C
C47    0.57382   0.5505  0.39497     C
C48    0.15152  0.42333  0.54051     C
C49    0.72027  0.51704  0.43365     C
C50    0.60477  0.37077  0.41455     C
C51    0.16454  0.33487   0.5491     C
H52    0.25745   0.3133  0.57228     H
C53     0.8989  0.30998  0.48919     C
H54    0.81526  0.27203   0.4729     H
C55    0.73598  0.43113  0.44298     C
C56    0.35022   0.2722  0.35419     C
C57    0.29948   0.6083  0.32118     C
C58     0.6108  0.56672  0.34227     C
H59    0.72769  0.55813  0.33167     H
C60     0.1556  0.63917  0.28131     C
C61     0.0402  0.27915  0.52339     C
H62    0.05184   0.2207  0.52916     H
C63    0.65481  0.32625   0.3698     C
H64    0.77409  0.32912  0.36015     H
C65     0.2121  0.22732  0.31858     C
C66     0.5279  0.27771  0.33955     C
H67    0.56196  0.24888  0.30948     H
C68     0.4747  0.59563  0.30535     C
H69    0.50065  0.60644  0.27031     H
C70     0.3989  0.56528  0.41054     C
H71    0.37381  0.55627  0.44584     H
C72      0.302  0.31175  0.40078     C
H73    0.18498  0.30557  0.41178     H
C74     0.2615  0.59337  0.37384     C
H75    0.14469  0.60215  0.38445     H
C76     0.4294  0.36044  0.43072     C
H77     0.3972  0.38646  0.46194     H
Cl78   0.89075  0.56989  0.74228    Cl
Cl79   0.84299  0.63875  0.85913    Cl
C80     0.0515  0.64272  0.83208     C
C81      0.199  0.67747  0.86199     C
H82    0.18452  0.69855  0.89602     H
C83     0.0739  0.61099  0.78121     C
C84     0.3673  0.68074  0.84122     C
H85    0.46534  0.70515  0.86104     H
C86     0.2434  0.61283   0.7612     C
H87    0.25905  0.59048  0.72755     H
C88     0.3905  0.64795  0.79117     C
H89     0.5045  0.64938  0.77756     H
Cl90   0.53609  0.86655  0.47477    Cl
Cl91   0.86893  0.94428  0.54613    Cl
C92     0.5122  0.90029  0.53932     C
C93     0.6586  0.93253  0.57094     C
C94     0.3427   0.8956   0.5596     C
H95    0.24367  0.87523  0.53828     H
C96     0.6346  0.95763  0.62305     C
H97    0.73258  0.97863  0.64453     H
C98     0.4651  0.95137  0.64292     C
H99    0.44931  0.96777  0.67785     H
C100      0.32  0.92095  0.61113     C
H101   0.20584  0.91747   0.6245     H
loop_
_geom_bond_atom_site_label_1
_geom_bond_atom_site_label_2
_geom_bond_distance
_geom_bond_site_symmetry_2
_ccdc_geom_bond_type
O0    C21    1.24423       .     S
C21   O0     1.24423       .     S
O1    H2     0.81996       .     S
H2    O1     0.81996       .     S
O1    C21    1.29593   1_455     S
C21   O1     1.29593   1_655     S
O3    H4     0.81999   1_655     S
H4    O3     0.81999   1_455     S
O3    C26    1.29885       .     S
C26   O3     1.29885       .     S
O5    C26    1.24480       .     S
C26   O5     1.24480       .     S
C6    C7     1.42440   1_455     S
C7    C6     1.42440   1_655     S
C6    C14    1.40276       .     S
C14   C6     1.40276       .     S
C6    C16    1.44649       .     S
C16   C6     1.44649       .     S
C7    C9     1.42808       .     S
C9    C7     1.42808       .     S
C7    C46    1.42133   1_655     S
C46   C7     1.42133   1_455     S
C8    C10    1.49447       .     S
C10   C8     1.49447       .     S
C8    C19    1.39456       .     S
C19   C8     1.39456       .     S
C8    C31    1.39376       .     S
C31   C8     1.39376       .     S
C9    C12    1.40451       .     S
C12   C9     1.40451       .     S
C9    C49    1.44869       .     S
C49   C9     1.44869       .     S
C10   C16    1.36938       .     S
C16   C10    1.36938       .     S
C10   C48    1.44869       .     S
C48   C10    1.44869       .     S
C11   C16    1.49669       .     S
C16   C11    1.49669       .     S
C11   C24    1.39530       .     S
C24   C11    1.39530       .     S
C11   C37    1.39239       .     S
C37   C11    1.39239       .     S
C12   H13    0.93002       .     S
H13   C12    0.93002       .     S
C12   C22    1.39061       .     S
C22   C12    1.39061       .     S
C14   H15    0.92986       .     S
H15   C14    0.92986       .     S
C14   C22    1.38836   1_455     S
C22   C14    1.38836   1_655     S
C17   C26    1.48326       .     S
C26   C17    1.48326       .     S
C17   C27    1.38863       .     S
C27   C17    1.38863       .     S
C17   C33    1.39318       .     S
C33   C17    1.39318       .     S
C18   C21    1.48631       .     S
C21   C18    1.48631       .     S
C18   C29    1.39304       .     S
C29   C18    1.39304       .     S
C18   C35    1.39202       .     S
C35   C18    1.39202       .     S
C19   H20    0.92997       .     S
H20   C19    0.92997       .     S
C19   C29    1.39212       .     S
C29   C19    1.39212       .     S
C22   H23    0.92993       .     S
H23   C22    0.92993       .     S
C24   H25    0.93002       .     S
H25   C24    0.93002       .     S
C24   C27    1.38869       .     S
C27   C24    1.38869       .     S
C27   H28    0.93025       .     S
H28   C27    0.93025       .     S
C29   H30    0.93001       .     S
H30   C29    0.93001       .     S
C31   H32    0.92989       .     S
H32   C31    0.92989       .     S
C31   C35    1.39110       .     S
C35   C31    1.39110       .     S
C33   H34    0.92979       .     S
H34   C33    0.92979       .     S
C33   C37    1.38842       .     S
C37   C33    1.38842       .     S
C35   H36    0.92993       .     S
H36   C35    0.92993       .     S
C37   H38    0.92997       .     S
H38   C37    0.92997       .     S
O39   C60    1.24423       .     S
C60   O39    1.24423       .     S
O40   H41    0.81996       .     S
H41   O40    0.81996       .     S
O40   C60    1.29593   1_655     S
C60   O40    1.29593   1_455     S
O42   H43    0.81999   1_455     S
H43   O42    0.81999   1_655     S
O42   C65    1.29885       .     S
C65   O42    1.29885       .     S
O44   C65    1.24480       .     S
C65   O44    1.24480       .     S
C45   C46    1.42440   1_655     S
C46   C45    1.42440   1_455     S
C45   C53    1.40276       .     S
C53   C45    1.40276       .     S
C45   C55    1.44649       .     S
C55   C45    1.44649       .     S
C46   C48    1.42808       .     S
C48   C46    1.42808       .     S
C47   C49    1.49447       .     S
C49   C47    1.49447       .     S
C47   C58    1.39456       .     S
C58   C47    1.39456       .     S
C47   C70    1.39376       .     S
C70   C47    1.39376       .     S
C48   C51    1.40451       .     S
C51   C48    1.40451       .     S
C49   C55    1.36938       .     S
C55   C49    1.36938       .     S
C50   C55    1.49669       .     S
C55   C50    1.49669       .     S
C50   C63    1.39530       .     S
C63   C50    1.39530       .     S
C50   C76    1.39239       .     S
C76   C50    1.39239       .     S
C51   H52    0.93003       .     S
H52   C51    0.93003       .     S
C51   C61    1.39061       .     S
C61   C51    1.39061       .     S
C53   H54    0.92986       .     S
H54   C53    0.92986       .     S
C53   C61    1.38836   1_655     S
C61   C53    1.38836   1_455     S
C56   C65    1.48326       .     S
C65   C56    1.48326       .     S
C56   C66    1.38863       .     S
C66   C56    1.38863       .     S
C56   C72    1.39318       .     S
C72   C56    1.39318       .     S
C57   C60    1.48631       .     S
C60   C57    1.48631       .     S
C57   C68    1.39304       .     S
C68   C57    1.39304       .     S
C57   C74    1.39202       .     S
C74   C57    1.39202       .     S
C58   H59    0.92997       .     S
H59   C58    0.92997       .     S
C58   C68    1.39212       .     S
C68   C58    1.39212       .     S
C61   H62    0.92993       .     S
H62   C61    0.92993       .     S
C63   H64    0.93002       .     S
H64   C63    0.93002       .     S
C63   C66    1.38870       .     S
C66   C63    1.38870       .     S
C66   H67    0.93025       .     S
H67   C66    0.93025       .     S
C68   H69    0.93001       .     S
H69   C68    0.93001       .     S
C70   H71    0.92989       .     S
H71   C70    0.92989       .     S
C70   C74    1.39110       .     S
C74   C70    1.39110       .     S
C72   H73    0.92979       .     S
H73   C72    0.92979       .     S
C72   C76    1.38842       .     S
C76   C72    1.38842       .     S
C74   H75    0.92993       .     S
H75   C74    0.92993       .     S
C76   H77    0.92997       .     S
H77   C76    0.92997       .     S
Cl78  C83    1.73311   1_655     S
C83   Cl78   1.73311   1_455     S
Cl79  C80    1.72624   1_655     S
C80   Cl79   1.72624   1_455     S
C80   C81    1.38763       .     S
C81   C80    1.38763       .     S
C80   C83    1.39242       .     S
C83   C80    1.39242       .     S
C81   H82    0.92998       .     S
H82   C81    0.92998       .     S
C81   C84    1.38134       .     S
C84   C81    1.38134       .     S
C83   C86    1.38058       .     S
C86   C83    1.38058       .     S
C84   H85    0.92985       .     S
H85   C84    0.92985       .     S
C84   C88    1.38055       .     S
C88   C84    1.38055       .     S
C86   H87    0.93004       .     S
H87   C86    0.93004       .     S
C86   C88    1.38846       .     S
C88   C86    1.38846       .     S
C88   H89    0.93024       .     S
H89   C88    0.93024       .     S
Cl90  C92    1.72705       .     S
C92   Cl90   1.72705       .     S
Cl91  C93    1.72241       .     S
C93   Cl91   1.72241       .     S
C92   C93    1.38828       .     S
C93   C92    1.38828       .     S
C92   C94    1.38515       .     S
C94   C92    1.38515       .     S
C93   C96    1.39070       .     S
C96   C93    1.39070       .     S
C94   H95    0.93022       .     S
H95   C94    0.93022       .     S
C94   C100   1.37612       .     S
C100  C94    1.37612       .     S
C96   H97    0.93004       .     S
H97   C96    0.93004       .     S
C96   C98    1.38225       .     S
C98   C96    1.38225       .     S
C98   H99    0.92992       .     S
H99   C98    0.92992       .     S
C98   C100   1.37331       .     S
C100  C98    1.37331       .     S
C100  H101   0.93008       .     S
H101  C100   0.93008       .     S
C21   O0     1.24423       .     S
O0    C21    1.24423       .     S
H2    O1     0.81996       .     S
O1    H2     0.81996       .     S
C21   O1     1.29593   1_655     S
O1    C21    1.29593   1_455     S
H4    O3     0.81999   1_455     S
O3    H4     0.81999   1_655     S
C26   O3     1.29885       .     S
O3    C26    1.29885       .     S
C26   O5     1.24480       .     S
O5    C26    1.24480       .     S
C7    C6     1.42440   1_655     S
C6    C7     1.42440   1_455     S
C14   C6     1.40276       .     S
C6    C14    1.40276       .     S
C16   C6     1.44649       .     S
C6    C16    1.44649       .     S
C9    C7     1.42808       .     S
C7    C9     1.42808       .     S
C46   C7     1.42133   1_455     S
C7    C46    1.42133   1_655     S
C10   C8     1.49447       .     S
C8    C10    1.49447       .     S
C19   C8     1.39456       .     S
C8    C19    1.39456       .     S
C31   C8     1.39376       .     S
C8    C31    1.39376       .     S
C12   C9     1.40451       .     S
C9    C12    1.40451       .     S
C49   C9     1.44869       .     S
C9    C49    1.44869       .     S
C16   C10    1.36938       .     S
C10   C16    1.36938       .     S
C48   C10    1.44869       .     S
C10   C48    1.44869       .     S
C16   C11    1.49669       .     S
C11   C16    1.49669       .     S
C24   C11    1.39530       .     S
C11   C24    1.39530       .     S
C37   C11    1.39239       .     S
C11   C37    1.39239       .     S
H13   C12    0.93002       .     S
C12   H13    0.93002       .     S
C22   C12    1.39061       .     S
C12   C22    1.39061       .     S
H15   C14    0.92986       .     S
C14   H15    0.92986       .     S
C22   C14    1.38836   1_655     S
C14   C22    1.38836   1_455     S
C26   C17    1.48326       .     S
C17   C26    1.48326       .     S
C27   C17    1.38863       .     S
C17   C27    1.38863       .     S
C33   C17    1.39318       .     S
C17   C33    1.39318       .     S
C21   C18    1.48631       .     S
C18   C21    1.48631       .     S
C29   C18    1.39304       .     S
C18   C29    1.39304       .     S
C35   C18    1.39202       .     S
C18   C35    1.39202       .     S
H20   C19    0.92997       .     S
C19   H20    0.92997       .     S
C29   C19    1.39212       .     S
C19   C29    1.39212       .     S
H23   C22    0.92993       .     S
C22   H23    0.92993       .     S
H25   C24    0.93002       .     S
C24   H25    0.93002       .     S
C27   C24    1.38869       .     S
C24   C27    1.38869       .     S
H28   C27    0.93025       .     S
C27   H28    0.93025       .     S
H30   C29    0.93001       .     S
C29   H30    0.93001       .     S
H32   C31    0.92989       .     S
C31   H32    0.92989       .     S
C35   C31    1.39110       .     S
C31   C35    1.39110       .     S
H34   C33    0.92979       .     S
C33   H34    0.92979       .     S
C37   C33    1.38842       .     S
C33   C37    1.38842       .     S
H36   C35    0.92993       .     S
C35   H36    0.92993       .     S
H38   C37    0.92997       .     S
C37   H38    0.92997       .     S
C60   O39    1.24423       .     S
O39   C60    1.24423       .     S
H41   O40    0.81996       .     S
O40   H41    0.81996       .     S
C60   O40    1.29593   1_455     S
O40   C60    1.29593   1_655     S
H43   O42    0.81999   1_655     S
O42   H43    0.81999   1_455     S
C65   O42    1.29885       .     S
O42   C65    1.29885       .     S
C65   O44    1.24480       .     S
O44   C65    1.24480       .     S
C46   C45    1.42440   1_455     S
C45   C46    1.42440   1_655     S
C53   C45    1.40276       .     S
C45   C53    1.40276       .     S
C55   C45    1.44649       .     S
C45   C55    1.44649       .     S
C48   C46    1.42808       .     S
C46   C48    1.42808       .     S
C49   C47    1.49447       .     S
C47   C49    1.49447       .     S
C58   C47    1.39456       .     S
C47   C58    1.39456       .     S
C70   C47    1.39376       .     S
C47   C70    1.39376       .     S
C51   C48    1.40451       .     S
C48   C51    1.40451       .     S
C55   C49    1.36938       .     S
C49   C55    1.36938       .     S
C55   C50    1.49669       .     S
C50   C55    1.49669       .     S
C63   C50    1.39530       .     S
C50   C63    1.39530       .     S
C76   C50    1.39239       .     S
C50   C76    1.39239       .     S
H52   C51    0.93003       .     S
C51   H52    0.93003       .     S
C61   C51    1.39061       .     S
C51   C61    1.39061       .     S
H54   C53    0.92986       .     S
C53   H54    0.92986       .     S
C61   C53    1.38836   1_455     S
C53   C61    1.38836   1_655     S
C65   C56    1.48326       .     S
C56   C65    1.48326       .     S
C66   C56    1.38863       .     S
C56   C66    1.38863       .     S
C72   C56    1.39318       .     S
C56   C72    1.39318       .     S
C60   C57    1.48631       .     S
C57   C60    1.48631       .     S
C68   C57    1.39304       .     S
C57   C68    1.39304       .     S
C74   C57    1.39202       .     S
C57   C74    1.39202       .     S
H59   C58    0.92997       .     S
C58   H59    0.92997       .     S
C68   C58    1.39212       .     S
C58   C68    1.39212       .     S
H62   C61    0.92993       .     S
C61   H62    0.92993       .     S
H64   C63    0.93002       .     S
C63   H64    0.93002       .     S
C66   C63    1.38870       .     S
C63   C66    1.38870       .     S
H67   C66    0.93025       .     S
C66   H67    0.93025       .     S
H69   C68    0.93001       .     S
C68   H69    0.93001       .     S
H71   C70    0.92989       .     S
C70   H71    0.92989       .     S
C74   C70    1.39110       .     S
C70   C74    1.39110       .     S
H73   C72    0.92979       .     S
C72   H73    0.92979       .     S
C76   C72    1.38842       .     S
C72   C76    1.38842       .     S
H75   C74    0.92993       .     S
C74   H75    0.92993       .     S
H77   C76    0.92997       .     S
C76   H77    0.92997       .     S
C83   Cl78   1.73311   1_455     S
Cl78  C83    1.73311   1_655     S
C80   Cl79   1.72624   1_455     S
Cl79  C80    1.72624   1_655     S
C81   C80    1.38763       .     S
C80   C81    1.38763       .     S
C83   C80    1.39242       .     S
C80   C83    1.39242       .     S
H82   C81    0.92998       .     S
C81   H82    0.92998       .     S
C84   C81    1.38134       .     S
C81   C84    1.38134       .     S
C86   C83    1.38058       .     S
C83   C86    1.38058       .     S
H85   C84    0.92985       .     S
C84   H85    0.92985       .     S
C88   C84    1.38055       .     S
C84   C88    1.38055       .     S
H87   C86    0.93004       .     S
C86   H87    0.93004       .     S
C88   C86    1.38846       .     S
C86   C88    1.38846       .     S
H89   C88    0.93024       .     S
C88   H89    0.93024       .     S
C92   Cl90   1.72705       .     S
Cl90  C92    1.72705       .     S
C93   Cl91   1.72241       .     S
Cl91  C93    1.72241       .     S
C93   C92    1.38828       .     S
C92   C93    1.38828       .     S
C94   C92    1.38515       .     S
C92   C94    1.38515       .     S
C96   C93    1.39070       .     S
C93   C96    1.39070       .     S
H95   C94    0.93022       .     S
C94   H95    0.93022       .     S
C100  C94    1.37612       .     S
C94   C100   1.37612       .     S
H97   C96    0.93004       .     S
C96   H97    0.93004       .     S
C98   C96    1.38225       .     S
C96   C98    1.38225       .     S
H99   C98    0.92992       .     S
C98   H99    0.92992       .     S
C100  C98    1.37331       .     S
C98   C100   1.37331       .     S
H101  C100   0.93008       .     S
C100  H101   0.93008       .     S
