data_I
_chemical_name_common  '/data/user2/wty/HOF/MOFDiff/mofdiff/data/test/291-hof2-s'
_cell_length_a 18.79100
_cell_length_b 20.08600
_cell_length_c 22.99700
_cell_angle_alpha 90.00000
_cell_angle_beta  90.00000
_cell_angle_gamma 90.00000
_space_group_name_H-M_alt      'P 1'


loop_
_space_group_symop_operation_xyz
  'x, y, z' 

loop_
_atom_site_label
_atom_site_fract_x
_atom_site_fract_y
_atom_site_fract_z
_atom_site_type_symbol
N0     0.38247  0.20771  0.44761     N
H1     0.39662  0.17252  0.46551     H
N2     0.27116  0.17038  0.32367     N
N3     0.32946  0.27424  0.38377     N
H4     0.30423  0.28662   0.3545     H
N5     0.16572  0.10436  0.20567     N
N6     0.18988  0.20889  0.23211     N
H7     0.20753  0.24137  0.25174     H
C8      0.3644  0.31547  0.42209     C
C9     0.34199  0.21061  0.40047     C
C10    0.13117   0.1485  0.16831     C
C11    0.24584  0.12121   0.2903     C
C12    0.31442  0.15423  0.36791     C
C13     0.1185   0.2678  0.15374     C
H14    0.12859  0.31135  0.16469     H
C15     0.2631   0.0551  0.29934     C
H16    0.24506  0.02213  0.27504     H
C17     0.3705   0.3839  0.42594     C
H18     0.3482  0.41216  0.39959     H
C19     0.3073   0.0388   0.3448     C
H20     0.3196  0.99465  0.35171     H
C21     0.0612   0.1893   0.0908     C
H22    0.03215  0.18199  0.05866     H
C23     0.4382    0.299  0.50718     C
H24    0.46017  0.27135  0.53415     H
C25      0.445   0.3665   0.5104     C
H26    0.47276  0.38492  0.53976     H
C27     0.4117    0.408   0.4714     C
H28    0.41705  0.45379   0.4756     H
C29    0.39711   0.2729  0.46193     C
C30    0.14554   0.2141  0.18377     C
C31    0.20003   0.1433  0.24245     C
C32     0.0875    0.135  0.12017     C
H33    0.07703  0.09164  0.10878     H
C34      0.333   0.0888  0.38006     C
H35    0.36235  0.07888  0.41146     H
C36     0.0758   0.2537  0.10675     C
H37    0.05636  0.28857  0.08535     H
O38     0.1259  0.47174  0.16412     O
H39    0.12948   0.5123  0.16693     H
C40     0.0737   0.4562   0.1232     C
H41    0.09536  0.45091  0.08567     H
H42    0.03929  0.49144  0.12166     H
H43    0.05057  0.41543  0.13411     H
N44    0.24282  0.17227  0.04134     N
N45    0.12732  0.21495  0.92123     N
H46    0.11009   0.1807  0.90376     H
N47    0.32521  0.21011  0.13102     N
H48    0.30719  0.24251   0.1115     H
N49    0.18685  0.27812  0.98359     N
H50    0.21385  0.28886  0.01229     H
N51    0.35052  0.10599  0.15722     N
C52     0.1526  0.32169  0.94653     C
C53     0.1702  0.21518  0.96656     C
C54    0.36914  0.21542  0.17911     C
C55    0.26945  0.12259  0.07275     C
C56    0.38448     0.15  0.19471     C
C57     0.2534   0.0563  0.06243     C
H58    0.27261  0.02263  0.08536     H
C59     0.1514   0.3903  0.94239     C
H60     0.1762  0.41709  0.96843     H
C61     0.2078   0.0418  0.01691     C
H62    0.19588  0.99776  0.00892     H
C63     0.0753   0.3096  0.86315     C
H64    0.04968   0.2833  0.83724     H
C65     0.4276   0.1376  0.24294     C
H66    0.43873  0.09442  0.25434     H
C67     0.4371   0.2567  0.25681     C
H68    0.45543  0.29185  0.27851     H
C69     0.0747   0.3773  0.85918     C
H70    0.04865  0.39745  0.82966     H
C71    0.19833  0.15737   0.9973     C
C72    0.11567  0.28124  0.90748     C
C73    0.31589  0.14434  0.12043     C
C74      0.395   0.2701  0.20943     C
H75    0.38426  0.31343  0.19826     H
C76       0.18   0.0923  0.98342     C
H77    0.14985  0.08311  0.95237     H
C78      0.112   0.4169    0.898     C
H79    0.11023  0.46288  0.89382     H
C80     0.4529   0.1919  0.27286     C
H81    0.48177  0.18481  0.30513     H
O82     0.3921  0.39439  0.02569     O
C83     0.4549    0.406   0.0537     C
H84    0.48662  0.42956  0.02824     H
H85    0.47606  0.36436   0.0647     H
H86    0.44624  0.43227  0.08784     H
O87    0.27506  0.33369  0.07688     O
H88    0.31071  0.35379  0.06241     H
H89    0.26281  0.35762  0.10573     H
O90     0.2481  0.39961  0.18152     O
H91    0.20986  0.42143  0.17646     H
H92    0.28279  0.42652  0.18504     H
O93     0.1252  0.38461  0.34083     O
C94     0.0677   0.3895   0.3044     C
H95    0.07905  0.41871  0.27264     H
H96    0.02777  0.40713  0.32545     H
H97    0.05592  0.34626  0.28951     H
O98     0.2429  0.33092  0.28851     O
H99    0.20533  0.34477  0.30525     H
H100   0.24828  0.35694  0.25974     H
O101    0.3662  0.47231   0.2044     O
H102   0.35167  0.51081  0.20448     H
C103    0.4049   0.4599   0.2565     C
H104   0.45292   0.4754  0.25203     H
H105   0.40516    0.413  0.26441     H
H106   0.38271  0.48305  0.28824     H
loop_
_geom_bond_atom_site_label_1
_geom_bond_atom_site_label_2
_geom_bond_distance
_geom_bond_site_symmetry_2
_ccdc_geom_bond_type
H4    O98    2.10308       .     S
O98   H4     2.10308       .     S
H7    O98    2.09574       .     S
O98   H7     2.09574       .     S
H48   O87    2.08628       .     S
O87   H48    2.08628       .     S
H50   O87    2.08329       .     S
O87   H50    2.08329       .     S
H88   O82    1.92800       .     S
O82   H88    1.92800       .     S
H89   O90    1.95591       .     S
O90   H89    1.95591       .     S
H91   O38    1.89494       .     S
O38   H91    1.89494       .     S
H92   O101   1.87103       .     S
O101  H92    1.87103       .     S
H99   O93    1.89131       .     S
O93   H99    1.89131       .     S
H100  O90    1.99257       .     S
O90   H100   1.99257       .     S
N0    H1     0.86009       .     S
H1    N0     0.86009       .     S
N0    C9     1.32560       .     S
C9    N0     1.32560       .     S
N0    C29    1.37792       .     S
C29   N0     1.37792       .     S
N2    C11    1.33817       .     S
C11   N2     1.33817       .     S
N2    C12    1.34205       .     S
C12   N2     1.34205       .     S
N3    H4     0.86005       .     S
H4    N3     0.86005       .     S
N3    C8     1.37604       .     S
C8    N3     1.37604       .     S
N3    C9     1.35514       .     S
C9    N3     1.35514       .     S
N5    C10    1.39489       .     S
C10   N5     1.39489       .     S
N5    C31    1.32017       .     S
C31   N5     1.32017       .     S
N6    H7     0.85989       .     S
H7    N6     0.85989       .     S
N6    C30    1.39319       .     S
C30   N6     1.39319       .     S
N6    C31    1.35225       .     S
C31   N6     1.35225       .     S
C8    C17    1.38209       .     S
C17   C8     1.38209       .     S
C8    C29    1.39583       .     S
C29   C8     1.39583       .     S
C9    C12    1.45310       .     S
C12   C9     1.45310       .     S
C10   C30    1.39122       .     S
C30   C10    1.39122       .     S
C10   C32    1.40447       .     S
C32   C10    1.40447       .     S
C11   C15    1.38264       .     S
C15   C11    1.38264       .     S
C11   C31    1.46587       .     S
C31   C11    1.46587       .     S
C12   C34    1.38822       .     S
C34   C12    1.38822       .     S
C13   H14    0.92981       .     S
H14   C13    0.92981       .     S
C13   C30    1.37787       .     S
C30   C13    1.37787       .     S
C13   C36    1.37542       .     S
C36   C13    1.37542       .     S
C15   H16    0.93046       .     S
H16   C15    0.93046       .     S
C15   C19    1.37476       .     S
C19   C15    1.37476       .     S
C17   H18    0.93005       .     S
H18   C17    0.93005       .     S
C17   C27    1.38804       .     S
C27   C17    1.38804       .     S
C19   H20    0.93010   1_545     S
H20   C19    0.93010   1_565     S
C19   C34    1.37817       .     S
C34   C19    1.37817       .     S
C21   H22    0.93051       .     S
H22   C21    0.93051       .     S
C21   C32    1.37477       .     S
C32   C21    1.37477       .     S
C21   C36    1.37224       .     S
C36   C21    1.37224       .     S
C23   H24    0.92928       .     S
H24   C23    0.92928       .     S
C23   C25    1.36382       .     S
C25   C23    1.36382       .     S
C23   C29    1.39781       .     S
C29   C23    1.39781       .     S
C25   H26    0.92999       .     S
H26   C25    0.92999       .     S
C25   C27    1.37506       .     S
C27   C25    1.37506       .     S
C27   H28    0.93024       .     S
H28   C27    0.93024       .     S
C32   H33    0.93050       .     S
H33   C32    0.93050       .     S
C34   H35    0.93022       .     S
H35   C34    0.93022       .     S
C36   H37    0.93070       .     S
H37   C36    0.93070       .     S
O38   H39    0.82001       .     S
H39   O38    0.82001       .     S
O38   C40    1.39468       .     S
C40   O38    1.39468       .     S
C40   H41    0.96013       .     S
H41   C40    0.96013       .     S
C40   H42    0.95936       .     S
H42   C40    0.95936       .     S
C40   H43    0.96045       .     S
H43   C40    0.96045       .     S
N44   C55    1.32963       .     S
C55   N44    1.32963       .     S
N44   C71    1.34693   1_554     S
C71   N44    1.34693   1_556     S
N45   H46    0.85994       .     S
H46   N45    0.85994       .     S
N45   C53    1.31756       .     S
C53   N45    1.31756       .     S
N45   C72    1.38593       .     S
C72   N45    1.38593       .     S
N47   H48    0.86006       .     S
H48   N47    0.86006       .     S
N47   C54    1.38415       .     S
C54   N47    1.38415       .     S
N47   C73    1.35468       .     S
C73   N47    1.35468       .     S
N49   H50    0.85998   1_556     S
H50   N49    0.85998   1_554     S
N49   C52    1.38074       .     S
C52   N49    1.38074       .     S
N49   C53    1.35996       .     S
C53   N49    1.35996       .     S
N51   C56    1.38995       .     S
C56   N51    1.38995       .     S
N51   C73    1.31629       .     S
C73   N51    1.31629       .     S
C52   C59    1.38157       .     S
C59   C52    1.38157       .     S
C52   C72    1.39576       .     S
C72   C52    1.39576       .     S
C53   C71    1.45859       .     S
C71   C53    1.45859       .     S
C54   C56    1.39229       .     S
C56   C54    1.39229       .     S
C54   C74    1.38873       .     S
C74   C54    1.38873       .     S
C55   C57    1.38571       .     S
C57   C55    1.38571       .     S
C55   C73    1.46788       .     S
C73   C55    1.46788       .     S
C56   C65    1.39598       .     S
C65   C56    1.39598       .     S
C57   H58    0.93046       .     S
H58   C57    0.93046       .     S
C57   C61    1.38380       .     S
C61   C57    1.38380       .     S
C59   H60    0.93024       .     S
H60   C59    0.93024       .     S
C59   C78    1.36957       .     S
C78   C59    1.36957       .     S
C61   H62    0.93082   1_545     S
H62   C61    0.93082   1_565     S
C61   C76    1.37657   1_554     S
C76   C61    1.37657   1_556     S
C63   H64    0.93052       .     S
H64   C63    0.93052       .     S
C63   C69    1.36293       .     S
C69   C63    1.36293       .     S
C63   C72    1.39257       .     S
C72   C63    1.39257       .     S
C65   H66    0.92990       .     S
H66   C65    0.92990       .     S
C65   C80    1.37442       .     S
C80   C65    1.37442       .     S
C67   H68    0.93067       .     S
H68   C67    0.93067       .     S
C67   C74    1.37314       .     S
C74   C67    1.37314       .     S
C67   C80    1.38509       .     S
C80   C67    1.38509       .     S
C69   H70    0.92967       .     S
H70   C69    0.92967       .     S
C69   C78    1.38598       .     S
C78   C69    1.38598       .     S
C71   C76    1.38880       .     S
C76   C71    1.38880       .     S
C74   H75    0.92961       .     S
H75   C74    0.92961       .     S
C76   H77    0.93002       .     S
H77   C76    0.93002       .     S
C78   H79    0.92914       .     S
H79   C78    0.92914       .     S
C80   H81    0.93022       .     S
H81   C80    0.93022       .     S
O82   C83    1.36451       .     S
C83   O82    1.36451       .     S
C83   H84    0.96023       .     S
H84   C83    0.96023       .     S
C83   H85    0.96001       .     S
H85   C83    0.96001       .     S
C83   H86    0.95985       .     S
H86   C83    0.95985       .     S
O87   H88    0.85000       .     S
H88   O87    0.85000       .     S
O87   H89    0.85100       .     S
H89   O87    0.85100       .     S
O90   H91    0.84969       .     S
H91   O90    0.84969       .     S
O90   H92    0.85066       .     S
H92   O90    0.85066       .     S
O93   C94    1.37075       .     S
C94   O93    1.37075       .     S
C94   H95    0.96082       .     S
H95   C94    0.96082       .     S
C94   H96    0.96059       .     S
H96   C94    0.96059       .     S
C94   H97    0.95947       .     S
H97   C94    0.95947       .     S
O98   H99    0.85088       .     S
H99   O98    0.85088       .     S
O98   H100   0.84919       .     S
H100  O98    0.84919       .     S
O101  H102   0.82010       .     S
H102  O101   0.82010       .     S
O101  C103   1.42356       .     S
C103  O101   1.42356       .     S
C103  H104   0.96006       .     S
H104  C103   0.96006       .     S
C103  H105   0.95945       .     S
H105  C103   0.95945       .     S
C103  H106   0.96066       .     S
H106  C103   0.96066       .     S
O98   H4     2.10308       .     S
H4    O98    2.10308       .     S
O98   H7     2.09574       .     S
H7    O98    2.09574       .     S
O87   H48    2.08628       .     S
H48   O87    2.08628       .     S
O87   H50    2.08329       .     S
H50   O87    2.08329       .     S
O82   H88    1.92800       .     S
H88   O82    1.92800       .     S
O90   H89    1.95591       .     S
H89   O90    1.95591       .     S
O38   H91    1.89494       .     S
H91   O38    1.89494       .     S
O101  H92    1.87103       .     S
H92   O101   1.87103       .     S
O93   H99    1.89131       .     S
H99   O93    1.89131       .     S
O90   H100   1.99257       .     S
H100  O90    1.99257       .     S
H1    N0     0.86009       .     S
N0    H1     0.86009       .     S
C9    N0     1.32560       .     S
N0    C9     1.32560       .     S
C29   N0     1.37792       .     S
N0    C29    1.37792       .     S
C11   N2     1.33817       .     S
N2    C11    1.33817       .     S
C12   N2     1.34205       .     S
N2    C12    1.34205       .     S
H4    N3     0.86005       .     S
N3    H4     0.86005       .     S
C8    N3     1.37604       .     S
N3    C8     1.37604       .     S
C9    N3     1.35514       .     S
N3    C9     1.35514       .     S
C10   N5     1.39489       .     S
N5    C10    1.39489       .     S
C31   N5     1.32017       .     S
N5    C31    1.32017       .     S
H7    N6     0.85989       .     S
N6    H7     0.85989       .     S
C30   N6     1.39319       .     S
N6    C30    1.39319       .     S
C31   N6     1.35225       .     S
N6    C31    1.35225       .     S
C17   C8     1.38209       .     S
C8    C17    1.38209       .     S
C29   C8     1.39583       .     S
C8    C29    1.39583       .     S
C12   C9     1.45310       .     S
C9    C12    1.45310       .     S
C30   C10    1.39122       .     S
C10   C30    1.39122       .     S
C32   C10    1.40447       .     S
C10   C32    1.40447       .     S
C15   C11    1.38264       .     S
C11   C15    1.38264       .     S
C31   C11    1.46587       .     S
C11   C31    1.46587       .     S
C34   C12    1.38822       .     S
C12   C34    1.38822       .     S
H14   C13    0.92981       .     S
C13   H14    0.92981       .     S
C30   C13    1.37787       .     S
C13   C30    1.37787       .     S
C36   C13    1.37542       .     S
C13   C36    1.37542       .     S
H16   C15    0.93046       .     S
C15   H16    0.93046       .     S
C19   C15    1.37476       .     S
C15   C19    1.37476       .     S
H18   C17    0.93005       .     S
C17   H18    0.93005       .     S
C27   C17    1.38804       .     S
C17   C27    1.38804       .     S
H20   C19    0.93010   1_565     S
C19   H20    0.93010   1_545     S
C34   C19    1.37817       .     S
C19   C34    1.37817       .     S
H22   C21    0.93051       .     S
C21   H22    0.93051       .     S
C32   C21    1.37477       .     S
C21   C32    1.37477       .     S
C36   C21    1.37224       .     S
C21   C36    1.37224       .     S
H24   C23    0.92928       .     S
C23   H24    0.92928       .     S
C25   C23    1.36382       .     S
C23   C25    1.36382       .     S
C29   C23    1.39781       .     S
C23   C29    1.39781       .     S
H26   C25    0.92999       .     S
C25   H26    0.92999       .     S
C27   C25    1.37506       .     S
C25   C27    1.37506       .     S
H28   C27    0.93024       .     S
C27   H28    0.93024       .     S
H33   C32    0.93050       .     S
C32   H33    0.93050       .     S
H35   C34    0.93022       .     S
C34   H35    0.93022       .     S
H37   C36    0.93070       .     S
C36   H37    0.93070       .     S
H39   O38    0.82001       .     S
O38   H39    0.82001       .     S
C40   O38    1.39468       .     S
O38   C40    1.39468       .     S
H41   C40    0.96013       .     S
C40   H41    0.96013       .     S
H42   C40    0.95936       .     S
C40   H42    0.95936       .     S
H43   C40    0.96045       .     S
C40   H43    0.96045       .     S
C55   N44    1.32963       .     S
N44   C55    1.32963       .     S
C71   N44    1.34693   1_556     S
N44   C71    1.34693   1_554     S
H46   N45    0.85994       .     S
N45   H46    0.85994       .     S
C53   N45    1.31756       .     S
N45   C53    1.31756       .     S
C72   N45    1.38593       .     S
N45   C72    1.38593       .     S
H48   N47    0.86006       .     S
N47   H48    0.86006       .     S
C54   N47    1.38415       .     S
N47   C54    1.38415       .     S
C73   N47    1.35468       .     S
N47   C73    1.35468       .     S
H50   N49    0.85998   1_554     S
N49   H50    0.85998   1_556     S
C52   N49    1.38074       .     S
N49   C52    1.38074       .     S
C53   N49    1.35996       .     S
N49   C53    1.35996       .     S
C56   N51    1.38995       .     S
N51   C56    1.38995       .     S
C73   N51    1.31629       .     S
N51   C73    1.31629       .     S
C59   C52    1.38157       .     S
C52   C59    1.38157       .     S
C72   C52    1.39576       .     S
C52   C72    1.39576       .     S
C71   C53    1.45859       .     S
C53   C71    1.45859       .     S
C56   C54    1.39229       .     S
C54   C56    1.39229       .     S
C74   C54    1.38873       .     S
C54   C74    1.38873       .     S
C57   C55    1.38571       .     S
C55   C57    1.38571       .     S
C73   C55    1.46788       .     S
C55   C73    1.46788       .     S
C65   C56    1.39598       .     S
C56   C65    1.39598       .     S
H58   C57    0.93046       .     S
C57   H58    0.93046       .     S
C61   C57    1.38380       .     S
C57   C61    1.38380       .     S
H60   C59    0.93024       .     S
C59   H60    0.93024       .     S
C78   C59    1.36957       .     S
C59   C78    1.36957       .     S
H62   C61    0.93082   1_565     S
C61   H62    0.93082   1_545     S
C76   C61    1.37657   1_556     S
C61   C76    1.37657   1_554     S
H64   C63    0.93052       .     S
C63   H64    0.93052       .     S
C69   C63    1.36293       .     S
C63   C69    1.36293       .     S
C72   C63    1.39257       .     S
C63   C72    1.39257       .     S
H66   C65    0.92990       .     S
C65   H66    0.92990       .     S
C80   C65    1.37442       .     S
C65   C80    1.37442       .     S
H68   C67    0.93067       .     S
C67   H68    0.93067       .     S
C74   C67    1.37314       .     S
C67   C74    1.37314       .     S
C80   C67    1.38509       .     S
C67   C80    1.38509       .     S
H70   C69    0.92967       .     S
C69   H70    0.92967       .     S
C78   C69    1.38598       .     S
C69   C78    1.38598       .     S
C76   C71    1.38880       .     S
C71   C76    1.38880       .     S
H75   C74    0.92961       .     S
C74   H75    0.92961       .     S
H77   C76    0.93002       .     S
C76   H77    0.93002       .     S
H79   C78    0.92914       .     S
C78   H79    0.92914       .     S
H81   C80    0.93022       .     S
C80   H81    0.93022       .     S
C83   O82    1.36451       .     S
O82   C83    1.36451       .     S
H84   C83    0.96023       .     S
C83   H84    0.96023       .     S
H85   C83    0.96001       .     S
C83   H85    0.96001       .     S
H86   C83    0.95985       .     S
C83   H86    0.95985       .     S
H88   O87    0.85000       .     S
O87   H88    0.85000       .     S
H89   O87    0.85100       .     S
O87   H89    0.85100       .     S
H91   O90    0.84969       .     S
O90   H91    0.84969       .     S
H92   O90    0.85066       .     S
O90   H92    0.85066       .     S
C94   O93    1.37075       .     S
O93   C94    1.37075       .     S
H95   C94    0.96082       .     S
C94   H95    0.96082       .     S
H96   C94    0.96059       .     S
C94   H96    0.96059       .     S
H97   C94    0.95947       .     S
C94   H97    0.95947       .     S
H99   O98    0.85088       .     S
O98   H99    0.85088       .     S
H100  O98    0.84919       .     S
O98   H100   0.84919       .     S
H102  O101   0.82010       .     S
O101  H102   0.82010       .     S
C103  O101   1.42356       .     S
O101  C103   1.42356       .     S
H104  C103   0.96006       .     S
C103  H104   0.96006       .     S
H105  C103   0.95945       .     S
C103  H105   0.95945       .     S
H106  C103   0.96066       .     S
C103  H106   0.96066       .     S
