data_I
_chemical_name_common  '/data/user2/wty/HOF/MOFDiff/mofdiff/data/test/292-hiam-103'
_cell_length_a 22.06670
_cell_length_b 22.06670
_cell_length_c 16.81890
_cell_angle_alpha 90.00000
_cell_angle_beta  90.00000
_cell_angle_gamma 120.00000
_space_group_name_H-M_alt      'P 1'


loop_
_space_group_symop_operation_xyz
  'x, y, z' 

loop_
_atom_site_label
_atom_site_fract_x
_atom_site_fract_y
_atom_site_fract_z
_atom_site_type_symbol
O0     0.40256  0.47742  0.87123     O
O1     0.43768  0.41426  0.93785     O
H2       0.458    0.411    0.899     H
O3      0.4379  0.41675  0.22726     O
H4       0.457    0.426    0.273     H
O5     0.38556  0.46457  0.29227     O
C6     0.41485  0.45789  0.93362     C
C7     0.40327  0.48276  0.01125     C
C8     0.41076  0.45584  0.08169     C
H9     0.42547  0.42302  0.08177     H
C10    0.39628  0.47783   0.1527     C
C11    0.40611  0.45191  0.23015     C
C12    0.37469    0.528  0.15237     C
H13    0.36384  0.54172  0.20006     H
C14    0.36953  0.55679  0.08232     C
C15    0.38366  0.53449  0.01153     C
H16    0.38019  0.55376  0.96376     H
C17     0.3506  0.61394  0.08184     C
C18    0.28016  0.59605  0.08236     C
C19    0.22262  0.52063   0.0831     C
H20    0.23783   0.4927  0.05503     H
H21     0.1818  0.51654   0.0576     H
H22    0.21156  0.50458  0.13701     H
O23    0.40961   0.2785  0.05485     O
O24    0.30842   0.2234  0.11727     O
H25      0.292    0.218     0.07     H
O26    0.30457   0.1992  0.40635     O
H27      0.288    0.191   0.4525     H
O28    0.40389  0.23529  0.47137     O
C29    0.37578   0.2529   0.1153     C
C30    0.41039  0.25535  0.19142     C
C31    0.48272  0.27939  0.19132     C
H32    0.50739  0.29303  0.14369     H
C33    0.51728  0.28299  0.26041     C
C34    0.47989   0.2629  0.33097     C
H35    0.50274  0.26522   0.3783     H
C36    0.40806  0.23915  0.33158     C
C37    0.37304  0.23466  0.26125     C
H38    0.32509  0.21792  0.26139     H
C39    0.37199    0.224  0.40927     C
C40    0.59517   0.3095  0.26054     C
C41    0.64236  0.38139  0.26065     C
C42    0.61659  0.43303    0.261     C
H43    0.56993  0.41114  0.23997     H
H44    0.64689  0.47271  0.22886     H
H45    0.61652  0.44812  0.31456     H
O46     0.2538  0.35508  0.41019     O
H47      0.271    0.372    0.455     H
O48     0.1942  0.25453  0.47366     O
O49    0.22966  0.35609  0.11605     O
H50      0.237    0.377    0.072     H
O51     0.1703   0.2557  0.05421     O
C52     0.1918  0.28846  0.11467     C
C53    0.17465   0.2537  0.19388     C
C54    0.20382  0.29003  0.26345     C
H55     0.2362  0.33768  0.26256     H
C56    0.18331  0.25319  0.33513     C
C57     0.2124  0.28888   0.4124     C
C58    0.13525  0.18235  0.33605     C
H59    0.12279  0.15848  0.38423     H
C60    0.10542  0.14648  0.26637     C
C61    0.12606   0.1823  0.19515     C
H62    0.10741  0.15861  0.14768     H
C63    0.05092  0.07053  0.26742     C
C64    0.07148  0.02002  0.26733     C
C65    0.14822   0.0419   0.2668     C
H66    0.16479  0.04681  0.32052     H
H67    0.17419  0.08582   0.2396     H
H68    0.15444    0.007     0.24     H
O69    0.98084  0.40289  0.56346     O
H70      0.961    0.396    0.607     H
O71    0.07998   0.4597  0.63014     O
O72     0.9816   0.4043  0.27377     O
H73      0.959    0.399    0.232     H
O74    0.08137   0.4571  0.20761     O
C75    0.04854  0.44275  0.27006     C
C76    0.04734  0.44363  0.56676     C
C77    0.08502  0.46936  0.34759     C
C78    0.04933  0.44421  0.41859     C
H79    0.00227  0.40996   0.4185     H
C80    0.08445   0.4706   0.4899     C
C81    0.15447  0.52375  0.49006     C
H82    0.17753  0.54124  0.53812     H
C83    0.18992  0.55066  0.41897     C
C84    0.15557  0.52237  0.34843     C
H85     0.1795  0.53865  0.30062     H
C86    0.26478  0.61097  0.41874     C
C87    0.27703   0.6795  0.41867     C
C88    0.21693  0.69436   0.4174     C
H89    0.20349  0.69724  0.47092     H
H90    0.17785  0.65733  0.38982     H
H91    0.23143  0.73792  0.39059     H
loop_
_geom_bond_atom_site_label_1
_geom_bond_atom_site_label_2
_geom_bond_distance
_geom_bond_site_symmetry_2
_ccdc_geom_bond_type
O0    C6     1.21542       .     S
C6    O0     1.21542       .     S
O1    H2     0.81574       .     S
H2    O1     0.81574       .     S
O1    C6     1.29260       .     S
C6    O1     1.29260       .     S
O3    H4     0.85152       .     S
H4    O3     0.85152       .     S
O3    C11    1.28090       .     S
C11   O3     1.28090       .     S
O5    C11    1.22554       .     S
C11   O5     1.22554       .     S
C6    C7     1.48709   1_556     S
C7    C6     1.48709   1_554     S
C7    C8     1.37184       .     S
C8    C7     1.37184       .     S
C7    C15    1.40865       .     S
C15   C7     1.40865       .     S
C8    H9     0.93003       .     S
H9    C8     0.93003       .     S
C8    C10    1.38528       .     S
C10   C8     1.38528       .     S
C10   C11    1.48159       .     S
C11   C10    1.48159       .     S
C10   C12    1.40715       .     S
C12   C10    1.40715       .     S
C12   H13    0.92996       .     S
H13   C12    0.92996       .     S
C12   C14    1.37003       .     S
C14   C12    1.37003       .     S
C14   C15    1.38216       .     S
C15   C14    1.38216       .     S
C14   C17    1.51385       .     S
C17   C14    1.51385       .     S
C15   H16    0.92992   1_554     S
H16   C15    0.92992   1_556     S
C17   C18    1.39942       .     S
C18   C17    1.39942       .     S
C18   C19    1.50631       .     S
C19   C18    1.50631       .     S
C19   H20    0.96034       .     S
H20   C19    0.96034       .     S
C19   H21    0.96029       .     S
H21   C19    0.96029       .     S
C19   H22    0.95952       .     S
H22   C19    0.95952       .     S
O23   C29    1.21999       .     S
C29   O23    1.21999       .     S
O24   H25    0.85696       .     S
H25   O24    0.85696       .     S
O24   C29    1.29100       .     S
C29   O24    1.29100       .     S
O26   H27    0.83830       .     S
H27   O26    0.83830       .     S
O26   C39    1.30426       .     S
C39   O26    1.30426       .     S
O28   C39    1.21371       .     S
C39   O28    1.21371       .     S
C29   C30    1.47783       .     S
C30   C29    1.47783       .     S
C30   C31    1.40791       .     S
C31   C30    1.40791       .     S
C30   C37    1.37507       .     S
C37   C30    1.37507       .     S
C31   H32    0.92996       .     S
H32   C31    0.92996       .     S
C31   C33    1.37026       .     S
C33   C31    1.37026       .     S
C33   C34    1.38559       .     S
C34   C33    1.38559       .     S
C33   C40    1.51359       .     S
C40   C33    1.51359       .     S
C34   H35    0.92991       .     S
H35   C34    0.92991       .     S
C34   C36    1.39873       .     S
C36   C34    1.39873       .     S
C36   C37    1.38911       .     S
C37   C36    1.38911       .     S
C36   C39    1.47870       .     S
C39   C36    1.47870       .     S
C37   H38    0.93015       .     S
H38   C37    0.93015       .     S
C40   C41    1.39607       .     S
C41   C40    1.39607       .     S
C41   C42    1.50663       .     S
C42   C41    1.50663       .     S
C42   H43    0.95980       .     S
H43   C42    0.95980       .     S
C42   H44    0.95942       .     S
H44   C42    0.95942       .     S
C42   H45    0.96066       .     S
H45   C42    0.96066       .     S
O46   H47    0.84246       .     S
H47   O46    0.84246       .     S
O46   C57    1.27883       .     S
C57   O46    1.27883       .     S
O48   C57    1.22188       .     S
C57   O48    1.22188       .     S
O49   H50    0.84457       .     S
H50   O49    0.84457       .     S
O49   C52    1.29572       .     S
C52   O49    1.29572       .     S
O51   C52    1.19947       .     S
C52   O51    1.19947       .     S
C52   C53    1.48866       .     S
C53   C52    1.48866       .     S
C53   C54    1.38207       .     S
C54   C53    1.38207       .     S
C53   C61    1.39397       .     S
C61   C53    1.39397       .     S
C54   H55    0.93009       .     S
H55   C54    0.93009       .     S
C54   C56    1.39685       .     S
C56   C54    1.39685       .     S
C56   C57    1.48853       .     S
C57   C56    1.48853       .     S
C56   C58    1.38230       .     S
C58   C56    1.38230       .     S
C58   H59    0.92998       .     S
H59   C58    0.92998       .     S
C58   C60    1.38284       .     S
C60   C58    1.38284       .     S
C60   C61    1.38096       .     S
C61   C60    1.38096       .     S
C60   C63    1.49664       .     S
C63   C60    1.49664       .     S
C61   H62    0.93002       .     S
H62   C61    0.93002       .     S
C63   C64    1.39779       .     S
C64   C63    1.39779       .     S
C64   C65    1.51102       .     S
C65   C64    1.51102       .     S
C65   H66    0.96029       .     S
H66   C65    0.96029       .     S
C65   H67    0.95999       .     S
H67   C65    0.95999       .     S
C65   H68    0.95959       .     S
H68   C65    0.95959       .     S
O69   H70    0.82733       .     S
H70   O69    0.82733       .     S
O69   C76    1.28274   1_655     S
C76   O69    1.28274   1_455     S
O71   C76    1.23508       .     S
C76   O71    1.23508       .     S
O72   H73    0.83523       .     S
H73   O72    0.83523       .     S
O72   C75    1.28547   1_655     S
C75   O72    1.28547   1_455     S
O74   C75    1.22430       .     S
C75   O74    1.22430       .     S
C75   C77    1.49012       .     S
C77   C75    1.49012       .     S
C76   C80    1.48610       .     S
C80   C76    1.48610       .     S
C77   C78    1.38461       .     S
C78   C77    1.38461       .     S
C77   C84    1.40396       .     S
C84   C77    1.40396       .     S
C78   H79    0.92992       .     S
H79   C78    0.92992       .     S
C78   C80    1.38812       .     S
C80   C78    1.38812       .     S
C80   C81    1.39670       .     S
C81   C80    1.39670       .     S
C81   H82    0.92999       .     S
H82   C81    0.92999       .     S
C81   C83    1.38911       .     S
C83   C81    1.38911       .     S
C83   C84    1.37791       .     S
C84   C83    1.37791       .     S
C83   C86    1.51708       .     S
C86   C83    1.51708       .     S
C84   H85    0.92994       .     S
H85   C84    0.92994       .     S
C86   C87    1.39683       .     S
C87   C86    1.39683       .     S
C87   C88    1.51713       .     S
C88   C87    1.51713       .     S
C88   H89    0.95974       .     S
H89   C88    0.95974       .     S
C88   H90    0.96015       .     S
H90   C88    0.96015       .     S
C88   H91    0.96026       .     S
H91   C88    0.96026       .     S
C6    O0     1.21542       .     S
O0    C6     1.21542       .     S
H2    O1     0.81574       .     S
O1    H2     0.81574       .     S
C6    O1     1.29260       .     S
O1    C6     1.29260       .     S
H4    O3     0.85152       .     S
O3    H4     0.85152       .     S
C11   O3     1.28090       .     S
O3    C11    1.28090       .     S
C11   O5     1.22554       .     S
O5    C11    1.22554       .     S
C7    C6     1.48709   1_554     S
C6    C7     1.48709   1_556     S
C8    C7     1.37184       .     S
C7    C8     1.37184       .     S
C15   C7     1.40865       .     S
C7    C15    1.40865       .     S
H9    C8     0.93003       .     S
C8    H9     0.93003       .     S
C10   C8     1.38528       .     S
C8    C10    1.38528       .     S
C11   C10    1.48159       .     S
C10   C11    1.48159       .     S
C12   C10    1.40715       .     S
C10   C12    1.40715       .     S
H13   C12    0.92996       .     S
C12   H13    0.92996       .     S
C14   C12    1.37003       .     S
C12   C14    1.37003       .     S
C15   C14    1.38216       .     S
C14   C15    1.38216       .     S
C17   C14    1.51385       .     S
C14   C17    1.51385       .     S
H16   C15    0.92992   1_556     S
C15   H16    0.92992   1_554     S
C18   C17    1.39942       .     S
C17   C18    1.39942       .     S
C19   C18    1.50631       .     S
C18   C19    1.50631       .     S
H20   C19    0.96034       .     S
C19   H20    0.96034       .     S
H21   C19    0.96029       .     S
C19   H21    0.96029       .     S
H22   C19    0.95952       .     S
C19   H22    0.95952       .     S
C29   O23    1.21999       .     S
O23   C29    1.21999       .     S
H25   O24    0.85696       .     S
O24   H25    0.85696       .     S
C29   O24    1.29100       .     S
O24   C29    1.29100       .     S
H27   O26    0.83830       .     S
O26   H27    0.83830       .     S
C39   O26    1.30426       .     S
O26   C39    1.30426       .     S
C39   O28    1.21371       .     S
O28   C39    1.21371       .     S
C30   C29    1.47783       .     S
C29   C30    1.47783       .     S
C31   C30    1.40791       .     S
C30   C31    1.40791       .     S
C37   C30    1.37507       .     S
C30   C37    1.37507       .     S
H32   C31    0.92996       .     S
C31   H32    0.92996       .     S
C33   C31    1.37026       .     S
C31   C33    1.37026       .     S
C34   C33    1.38559       .     S
C33   C34    1.38559       .     S
C40   C33    1.51359       .     S
C33   C40    1.51359       .     S
H35   C34    0.92991       .     S
C34   H35    0.92991       .     S
C36   C34    1.39873       .     S
C34   C36    1.39873       .     S
C37   C36    1.38911       .     S
C36   C37    1.38911       .     S
C39   C36    1.47870       .     S
C36   C39    1.47870       .     S
H38   C37    0.93015       .     S
C37   H38    0.93015       .     S
C41   C40    1.39607       .     S
C40   C41    1.39607       .     S
C42   C41    1.50663       .     S
C41   C42    1.50663       .     S
H43   C42    0.95980       .     S
C42   H43    0.95980       .     S
H44   C42    0.95942       .     S
C42   H44    0.95942       .     S
H45   C42    0.96066       .     S
C42   H45    0.96066       .     S
H47   O46    0.84246       .     S
O46   H47    0.84246       .     S
C57   O46    1.27883       .     S
O46   C57    1.27883       .     S
C57   O48    1.22188       .     S
O48   C57    1.22188       .     S
H50   O49    0.84457       .     S
O49   H50    0.84457       .     S
C52   O49    1.29572       .     S
O49   C52    1.29572       .     S
C52   O51    1.19947       .     S
O51   C52    1.19947       .     S
C53   C52    1.48866       .     S
C52   C53    1.48866       .     S
C54   C53    1.38207       .     S
C53   C54    1.38207       .     S
C61   C53    1.39397       .     S
C53   C61    1.39397       .     S
H55   C54    0.93009       .     S
C54   H55    0.93009       .     S
C56   C54    1.39685       .     S
C54   C56    1.39685       .     S
C57   C56    1.48853       .     S
C56   C57    1.48853       .     S
C58   C56    1.38230       .     S
C56   C58    1.38230       .     S
H59   C58    0.92998       .     S
C58   H59    0.92998       .     S
C60   C58    1.38284       .     S
C58   C60    1.38284       .     S
C61   C60    1.38096       .     S
C60   C61    1.38096       .     S
C63   C60    1.49664       .     S
C60   C63    1.49664       .     S
H62   C61    0.93002       .     S
C61   H62    0.93002       .     S
C64   C63    1.39779       .     S
C63   C64    1.39779       .     S
C65   C64    1.51102       .     S
C64   C65    1.51102       .     S
H66   C65    0.96029       .     S
C65   H66    0.96029       .     S
H67   C65    0.95999       .     S
C65   H67    0.95999       .     S
H68   C65    0.95959       .     S
C65   H68    0.95959       .     S
H70   O69    0.82733       .     S
O69   H70    0.82733       .     S
C76   O69    1.28274   1_455     S
O69   C76    1.28274   1_655     S
C76   O71    1.23508       .     S
O71   C76    1.23508       .     S
H73   O72    0.83523       .     S
O72   H73    0.83523       .     S
C75   O72    1.28547   1_455     S
O72   C75    1.28547   1_655     S
C75   O74    1.22430       .     S
O74   C75    1.22430       .     S
C77   C75    1.49012       .     S
C75   C77    1.49012       .     S
C80   C76    1.48610       .     S
C76   C80    1.48610       .     S
C78   C77    1.38461       .     S
C77   C78    1.38461       .     S
C84   C77    1.40396       .     S
C77   C84    1.40396       .     S
H79   C78    0.92992       .     S
C78   H79    0.92992       .     S
C80   C78    1.38812       .     S
C78   C80    1.38812       .     S
C81   C80    1.39670       .     S
C80   C81    1.39670       .     S
H82   C81    0.92999       .     S
C81   H82    0.92999       .     S
C83   C81    1.38911       .     S
C81   C83    1.38911       .     S
C84   C83    1.37791       .     S
C83   C84    1.37791       .     S
C86   C83    1.51708       .     S
C83   C86    1.51708       .     S
H85   C84    0.92994       .     S
C84   H85    0.92994       .     S
C87   C86    1.39683       .     S
C86   C87    1.39683       .     S
C88   C87    1.51713       .     S
C87   C88    1.51713       .     S
H89   C88    0.95974       .     S
C88   H89    0.95974       .     S
H90   C88    0.96015       .     S
C88   H90    0.96015       .     S
H91   C88    0.96026       .     S
C88   H91    0.96026       .     S
