data_I
_chemical_name_common  '/data/user2/wty/HOF/MOFDiff/mofdiff/data/test/293-s3_4'
_cell_length_a 22.63460
_cell_length_b  7.21290
_cell_length_c 37.27760
_cell_angle_alpha 90.00000
_cell_angle_beta  99.26600
_cell_angle_gamma 90.00000
_space_group_name_H-M_alt      'P 1'


loop_
_space_group_symop_operation_xyz
  'x, y, z' 

loop_
_atom_site_label
_atom_site_fract_x
_atom_site_fract_y
_atom_site_fract_z
_atom_site_type_symbol
N0     0.31736   0.4382  0.60652     N
N1     0.21848   0.5106  0.60258     N
C2     0.26564   0.4805  0.58732     C
C3     0.26031   0.4943  0.54698     C
C4     0.30919   0.5596  0.53245     C
C5     0.30573   0.5693  0.49499     C
C6     0.25506   0.5106  0.47159     C
C7     0.20593   0.4491  0.48667     C
C8     0.20852   0.4416  0.52408     C
N9     0.29819   0.4088  0.30426     N
N10    0.24083   0.6689  0.29903     N
C11    0.26697   0.5334  0.31874     C
C12    0.26144    0.521  0.35761     C
C13    0.20804    0.564   0.3698     C
C14    0.20483    0.557   0.4067     C
C15    0.25562   0.5111   0.4318     C
C16    0.30826   0.4665  0.41921     C
C17    0.31158   0.4686   0.3824     C
H18     0.3445   0.5972   0.5476     H
H19     0.3388   0.6155   0.4854     H
H20     0.1708   0.4154   0.4707     H
H21     0.1752   0.4044   0.5341     H
H22     0.1746   0.5995   0.3528     H
H23     0.1683   0.5824   0.4145     H
H24     0.3423   0.4329   0.4356     H
H25     0.3472   0.4336   0.3746     H
H26      0.221    0.495   0.6261     H
H27     0.2234    0.757   0.3085     H
H28      0.244    0.673   0.2761     H
H29     0.3123    0.313   0.3165     H
H30     0.3034     0.42   0.2822     H
H31     0.1841    0.542   0.5893     H
H32     0.3222     0.45   0.6296     H
H33     0.3453    0.401   0.5953     H
O34    0.72438   0.5545  0.26969     O
O35    0.68844   0.4938  0.32047     O
C36    0.68881   0.5867  0.29184     C
C37     0.6432   0.7392  0.28316     C
C38    0.64906   0.8717  0.25712     C
C39    0.60532   0.0052   0.2471     C
C40    0.55341    0.006  0.26251     C
C41    0.54745   0.8712  0.28886     C
C42    0.59172   0.7416  0.29946     C
C43        0.5   0.1364     0.25     C
O44    0.46572   0.6203  0.39512     O
O45    0.41894   0.7967  0.35151     O
C46    0.44794   0.6576  0.36201     C
C47    0.46261   0.5201  0.33406     C
C48    0.50504   0.3826  0.34278     C
C49    0.51805   0.2582  0.31664     C
C50    0.48749   0.2662  0.28103     C
C51    0.44508   0.4072  0.27254     C
C52    0.43315    0.532  0.29847     C
H53     0.6827   0.8726   0.2463     H
H54     0.6111   0.0929   0.2304     H
H55     0.5138   0.8682   0.2991     H
H56     0.5862    0.654   0.3171     H
H57     0.5257   0.3751   0.3664     H
H58     0.5468   0.1676   0.3232     H
H59     0.4244   0.4174   0.2491     H
H60     0.4061   0.6264   0.2917     H
O61    0.27562   0.5545  0.23031     O
O62    0.31156   0.4938  0.17953     O
C63    0.31119   0.5867  0.20816     C
C64     0.3568   0.7392  0.21684     C
C65    0.35094   0.8717  0.24288     C
C66    0.39468   0.0052   0.2529     C
C67    0.44659    0.006  0.23749     C
C68    0.45255   0.8712  0.21114     C
C69    0.40828   0.7416  0.20054     C
O70    0.53428   0.6203  0.10488     O
O71    0.58106   0.7967  0.14849     O
C72    0.55206   0.6576  0.13799     C
C73    0.53739   0.5201  0.16594     C
C74    0.49496   0.3826  0.15722     C
C75    0.48195   0.2582  0.18336     C
C76    0.51251   0.2662  0.21897     C
C77    0.55492   0.4072  0.22746     C
C78    0.56685    0.532  0.20153     C
H79     0.3173   0.8726   0.2537     H
H80     0.3889   0.0929   0.2696     H
H81     0.4862   0.8682   0.2009     H
H82     0.4138    0.654   0.1829     H
H83     0.4743   0.3751   0.1336     H
H84     0.4532   0.1676   0.1768     H
H85     0.5756   0.4174   0.2509     H
H86     0.5939   0.6264   0.2083     H
loop_
_geom_bond_atom_site_label_1
_geom_bond_atom_site_label_2
_geom_bond_distance
_geom_bond_site_symmetry_2
_ccdc_geom_bond_type
H28   O61    2.13304       .     S
O61   H28    2.13304       .     S
H30   O61    2.16483       .     S
O61   H30    2.16483       .     S
N0    C2     1.30613       .     S
C2    N0     1.30613       .     S
N0    H32    0.85389       .     S
H32   N0     0.85389       .     S
N0    H33    0.85560       .     S
H33   N0     0.85560       .     S
N1    C2     1.30603       .     S
C2    N1     1.30603       .     S
N1    H26    0.87666       .     S
H26   N1     0.87666       .     S
N1    H31    0.88197       .     S
H31   N1     0.88197       .     S
C2    C3     1.49244       .     S
C3    C2     1.49244       .     S
C3    C4     1.39007       .     S
C4    C3     1.39007       .     S
C3    C8     1.38749       .     S
C8    C3     1.38749       .     S
C4    C5     1.38773       .     S
C5    C4     1.38773       .     S
C4    H18    0.94123       .     S
H18   C4     0.94123       .     S
C5    C6     1.39045       .     S
C6    C5     1.39045       .     S
C5    H19    0.94091       .     S
H19   C5     0.94091       .     S
C6    C7     1.39668       .     S
C7    C6     1.39668       .     S
C6    C15    1.48537       .     S
C15   C6     1.48537       .     S
C7    C8     1.38738       .     S
C8    C7     1.38738       .     S
C7    H20    0.94516       .     S
H20   C7     0.94516       .     S
C8    H21    0.93329       .     S
H21   C8     0.93329       .     S
N9    C11    1.31197       .     S
C11   N9     1.31197       .     S
N9    H29    0.86066       .     S
H29   N9     0.86066       .     S
N9    H30    0.85318       .     S
H30   N9     0.85318       .     S
N10   C11    1.30581       .     S
C11   N10    1.30581       .     S
N10   H27    0.85377       .     S
H27   N10    0.85377       .     S
N10   H28    0.86972       .     S
H28   N10    0.86972       .     S
C11   C12    1.47703       .     S
C12   C11    1.47703       .     S
C12   C13    1.39302       .     S
C13   C12    1.39302       .     S
C12   C17    1.39538       .     S
C17   C12    1.39538       .     S
C13   C14    1.39001       .     S
C14   C13    1.39001       .     S
C13   H22    0.94106       .     S
H22   C13    0.94106       .     S
C14   C15    1.40010       .     S
C15   C14    1.40010       .     S
C14   H23    0.93766       .     S
H23   C14    0.93766       .     S
C15   C16    1.38689       .     S
C16   C15    1.38689       .     S
C16   C17    1.38636       .     S
C17   C16    1.38636       .     S
C16   H24    0.93492       .     S
H24   C16    0.93492       .     S
C17   H25    0.93477       .     S
H25   C17    0.93477       .     S
O34   C36    1.26412       .     S
C36   O34    1.26412       .     S
O35   C36    1.26135       .     S
C36   O35    1.26135       .     S
C36   C37    1.50759       .     S
C37   C36    1.50759       .     S
C37   C38    1.38373       .     S
C38   C37    1.38373       .     S
C37   C42    1.39831       .     S
C42   C37    1.39831       .     S
C38   C39    1.38846   1_565     S
C39   C38    1.38846   1_545     S
C38   H53    0.91728       .     S
H53   C38    0.91728       .     S
C39   C40    1.38849       .     S
C40   C39    1.38849       .     S
C39   H54    0.91161       .     S
H54   C39    0.91161       .     S
C40   C41    1.40395   1_545     S
C41   C40    1.40395   1_565     S
C40   C43    1.54339       .     S
C43   C40    1.54339       .     S
C41   C42    1.38077       .     S
C42   C41    1.38077       .     S
C41   H55    0.90550       .     S
H55   C41    0.90550       .     S
C42   H56    0.93472       .     S
H56   C42    0.93472       .     S
C43   C50    1.54926       .     S
C50   C43    1.54926       .     S
C43   C67    1.54339       .     S
C67   C43    1.54339       .     S
C43   C76    1.54926       .     S
C76   C43    1.54926       .     S
O44   C46    1.26403       .     S
C46   O44    1.26403       .     S
O45   C46    1.22799       .     S
C46   O45    1.22799       .     S
C46   C47    1.51356       .     S
C47   C46    1.51356       .     S
C47   C48    1.38242       .     S
C48   C47    1.38242       .     S
C47   C52    1.38826       .     S
C52   C47    1.38826       .     S
C48   C49    1.39060       .     S
C49   C48    1.39060       .     S
C48   H57    0.92967       .     S
H57   C48    0.92967       .     S
C49   C50    1.39579       .     S
C50   C49    1.39579       .     S
C49   H58    0.92686       .     S
H58   C49    0.92686       .     S
C50   C51    1.39933       .     S
C51   C50    1.39933       .     S
C51   C52    1.37899       .     S
C52   C51    1.37899       .     S
C51   H59    0.92537       .     S
H59   C51    0.92537       .     S
C52   H60    0.92327       .     S
H60   C52    0.92327       .     S
O61   C63    1.26412       .     S
C63   O61    1.26412       .     S
O62   C63    1.26135       .     S
C63   O62    1.26135       .     S
C63   C64    1.50759       .     S
C64   C63    1.50759       .     S
C64   C65    1.38373       .     S
C65   C64    1.38373       .     S
C64   C69    1.39831       .     S
C69   C64    1.39831       .     S
C65   C66    1.38846   1_565     S
C66   C65    1.38846   1_545     S
C65   H79    0.91728       .     S
H79   C65    0.91728       .     S
C66   C67    1.38850       .     S
C67   C66    1.38850       .     S
C66   H80    0.91161       .     S
H80   C66    0.91161       .     S
C67   C68    1.40395   1_545     S
C68   C67    1.40395   1_565     S
C68   C69    1.38077       .     S
C69   C68    1.38077       .     S
C68   H81    0.90550       .     S
H81   C68    0.90550       .     S
C69   H82    0.93473       .     S
H82   C69    0.93473       .     S
O70   C72    1.26403       .     S
C72   O70    1.26403       .     S
O71   C72    1.22799       .     S
C72   O71    1.22799       .     S
C72   C73    1.51356       .     S
C73   C72    1.51356       .     S
C73   C74    1.38242       .     S
C74   C73    1.38242       .     S
C73   C78    1.38826       .     S
C78   C73    1.38826       .     S
C74   C75    1.39060       .     S
C75   C74    1.39060       .     S
C74   H83    0.92967       .     S
H83   C74    0.92967       .     S
C75   C76    1.39579       .     S
C76   C75    1.39579       .     S
C75   H84    0.92686       .     S
H84   C75    0.92686       .     S
C76   C77    1.39933       .     S
C77   C76    1.39933       .     S
C77   C78    1.37899       .     S
C78   C77    1.37899       .     S
C77   H85    0.92537       .     S
H85   C77    0.92537       .     S
C78   H86    0.92327       .     S
H86   C78    0.92327       .     S
O61   H28    2.13304       .     S
H28   O61    2.13304       .     S
O61   H30    2.16483       .     S
H30   O61    2.16483       .     S
C2    N0     1.30613       .     S
N0    C2     1.30613       .     S
H32   N0     0.85389       .     S
N0    H32    0.85389       .     S
H33   N0     0.85560       .     S
N0    H33    0.85560       .     S
C2    N1     1.30603       .     S
N1    C2     1.30603       .     S
H26   N1     0.87666       .     S
N1    H26    0.87666       .     S
H31   N1     0.88197       .     S
N1    H31    0.88197       .     S
C3    C2     1.49244       .     S
C2    C3     1.49244       .     S
C4    C3     1.39007       .     S
C3    C4     1.39007       .     S
C8    C3     1.38749       .     S
C3    C8     1.38749       .     S
C5    C4     1.38773       .     S
C4    C5     1.38773       .     S
H18   C4     0.94123       .     S
C4    H18    0.94123       .     S
C6    C5     1.39045       .     S
C5    C6     1.39045       .     S
H19   C5     0.94091       .     S
C5    H19    0.94091       .     S
C7    C6     1.39668       .     S
C6    C7     1.39668       .     S
C15   C6     1.48537       .     S
C6    C15    1.48537       .     S
C8    C7     1.38738       .     S
C7    C8     1.38738       .     S
H20   C7     0.94516       .     S
C7    H20    0.94516       .     S
H21   C8     0.93329       .     S
C8    H21    0.93329       .     S
C11   N9     1.31197       .     S
N9    C11    1.31197       .     S
H29   N9     0.86066       .     S
N9    H29    0.86066       .     S
H30   N9     0.85318       .     S
N9    H30    0.85318       .     S
C11   N10    1.30581       .     S
N10   C11    1.30581       .     S
H27   N10    0.85377       .     S
N10   H27    0.85377       .     S
H28   N10    0.86972       .     S
N10   H28    0.86972       .     S
C12   C11    1.47703       .     S
C11   C12    1.47703       .     S
C13   C12    1.39302       .     S
C12   C13    1.39302       .     S
C17   C12    1.39538       .     S
C12   C17    1.39538       .     S
C14   C13    1.39001       .     S
C13   C14    1.39001       .     S
H22   C13    0.94106       .     S
C13   H22    0.94106       .     S
C15   C14    1.40010       .     S
C14   C15    1.40010       .     S
H23   C14    0.93766       .     S
C14   H23    0.93766       .     S
C16   C15    1.38689       .     S
C15   C16    1.38689       .     S
C17   C16    1.38636       .     S
C16   C17    1.38636       .     S
H24   C16    0.93492       .     S
C16   H24    0.93492       .     S
H25   C17    0.93477       .     S
C17   H25    0.93477       .     S
C36   O34    1.26412       .     S
O34   C36    1.26412       .     S
C36   O35    1.26135       .     S
O35   C36    1.26135       .     S
C37   C36    1.50759       .     S
C36   C37    1.50759       .     S
C38   C37    1.38373       .     S
C37   C38    1.38373       .     S
C42   C37    1.39831       .     S
C37   C42    1.39831       .     S
C39   C38    1.38846   1_545     S
C38   C39    1.38846   1_565     S
H53   C38    0.91728       .     S
C38   H53    0.91728       .     S
C40   C39    1.38849       .     S
C39   C40    1.38849       .     S
H54   C39    0.91161       .     S
C39   H54    0.91161       .     S
C41   C40    1.40395   1_565     S
C40   C41    1.40395   1_545     S
C43   C40    1.54339       .     S
C40   C43    1.54339       .     S
C42   C41    1.38077       .     S
C41   C42    1.38077       .     S
H55   C41    0.90550       .     S
C41   H55    0.90550       .     S
H56   C42    0.93472       .     S
C42   H56    0.93472       .     S
C50   C43    1.54926       .     S
C43   C50    1.54926       .     S
C67   C43    1.54339       .     S
C43   C67    1.54339       .     S
C76   C43    1.54926       .     S
C43   C76    1.54926       .     S
C46   O44    1.26403       .     S
O44   C46    1.26403       .     S
C46   O45    1.22799       .     S
O45   C46    1.22799       .     S
C47   C46    1.51356       .     S
C46   C47    1.51356       .     S
C48   C47    1.38242       .     S
C47   C48    1.38242       .     S
C52   C47    1.38826       .     S
C47   C52    1.38826       .     S
C49   C48    1.39060       .     S
C48   C49    1.39060       .     S
H57   C48    0.92967       .     S
C48   H57    0.92967       .     S
C50   C49    1.39579       .     S
C49   C50    1.39579       .     S
H58   C49    0.92686       .     S
C49   H58    0.92686       .     S
C51   C50    1.39933       .     S
C50   C51    1.39933       .     S
C52   C51    1.37899       .     S
C51   C52    1.37899       .     S
H59   C51    0.92537       .     S
C51   H59    0.92537       .     S
H60   C52    0.92327       .     S
C52   H60    0.92327       .     S
C63   O61    1.26412       .     S
O61   C63    1.26412       .     S
C63   O62    1.26135       .     S
O62   C63    1.26135       .     S
C64   C63    1.50759       .     S
C63   C64    1.50759       .     S
C65   C64    1.38373       .     S
C64   C65    1.38373       .     S
C69   C64    1.39831       .     S
C64   C69    1.39831       .     S
C66   C65    1.38846   1_545     S
C65   C66    1.38846   1_565     S
H79   C65    0.91728       .     S
C65   H79    0.91728       .     S
C67   C66    1.38850       .     S
C66   C67    1.38850       .     S
H80   C66    0.91161       .     S
C66   H80    0.91161       .     S
C68   C67    1.40395   1_565     S
C67   C68    1.40395   1_545     S
C69   C68    1.38077       .     S
C68   C69    1.38077       .     S
H81   C68    0.90550       .     S
C68   H81    0.90550       .     S
H82   C69    0.93473       .     S
C69   H82    0.93473       .     S
C72   O70    1.26403       .     S
O70   C72    1.26403       .     S
C72   O71    1.22799       .     S
O71   C72    1.22799       .     S
C73   C72    1.51356       .     S
C72   C73    1.51356       .     S
C74   C73    1.38242       .     S
C73   C74    1.38242       .     S
C78   C73    1.38826       .     S
C73   C78    1.38826       .     S
C75   C74    1.39060       .     S
C74   C75    1.39060       .     S
H83   C74    0.92967       .     S
C74   H83    0.92967       .     S
C76   C75    1.39579       .     S
C75   C76    1.39579       .     S
H84   C75    0.92686       .     S
C75   H84    0.92686       .     S
C77   C76    1.39933       .     S
C76   C77    1.39933       .     S
C78   C77    1.37899       .     S
C77   C78    1.37899       .     S
H85   C77    0.92537       .     S
C77   H85    0.92537       .     S
H86   C78    0.92327       .     S
C78   H86    0.92327       .     S
