data_I
_chemical_name_common  '/data/user2/wty/HOF/MOFDiff/mofdiff/data/test/293-aanth'
_cell_length_a 19.84280
_cell_length_b 19.84280
_cell_length_c 16.61820
_cell_angle_alpha 90.00000
_cell_angle_beta  90.00000
_cell_angle_gamma 90.00000
_space_group_name_H-M_alt      'P 1'


loop_
_space_group_symop_operation_xyz
  'x, y, z' 

loop_
_atom_site_label
_atom_site_fract_x
_atom_site_fract_y
_atom_site_fract_z
_atom_site_type_symbol
N0     0.44638   0.4775  0.65303     N
H1     0.44627  0.50654  0.69305     H
H2     0.40811  0.46099  0.63493     H
N3     0.56146  0.48276  0.64631     N
H4     0.56225  0.51184  0.68628     H
H5     0.59937   0.4697  0.62371     H
C6     0.50065   0.3109  0.43254     C
C7         0.5     0.25    0.375     C
C8      0.5027  0.40912  0.55398     C
C9     0.55229  0.35812  0.43613     C
H10    0.58725  0.35711   0.3971     H
C11     0.5036  0.45883  0.62036     C
C12    0.55329  0.40687  0.49635     C
H13    0.58888  0.43886  0.49802     H
C14    0.45031  0.36219  0.55004     C
H15    0.41513  0.36342  0.58878     H
C16    0.44947  0.31416  0.49021     C
H17    0.41345  0.28267   0.4881     H
N18    0.55362   0.0225  0.65303     N
H19    0.55373  0.99346  0.69305     H
H20    0.59188  0.03901  0.63493     H
N21    0.43854  0.01724  0.64631     N
H22    0.43775  0.98816  0.68628     H
H23    0.40063   0.0303  0.62371     H
C24    0.49935   0.1891  0.43254     C
C25     0.4973  0.09088  0.55398     C
C26    0.44771  0.14188  0.43613     C
H27    0.41275  0.14289   0.3971     H
C28     0.4964  0.04117  0.62036     C
C29    0.44671  0.09313  0.49635     C
H30    0.41112  0.06113  0.49802     H
C31    0.54969  0.13781  0.55004     C
H32    0.58487  0.13658  0.58878     H
C33    0.55053  0.18584  0.49021     C
H34    0.58655  0.21733   0.4881     H
N35     0.7275  0.30362  0.09697     N
H36    0.75654  0.30373  0.05694     H
H37    0.71099  0.34188  0.11507     H
N38    0.73276  0.18854  0.10369     N
H39    0.76184  0.18775  0.06372     H
H40     0.7197  0.15063  0.12629     H
C41     0.5609  0.24935  0.31746     C
C42    0.65912   0.2473  0.19602     C
C43    0.60812  0.19771  0.31387     C
H44    0.60711  0.16275   0.3529     H
C45    0.70883   0.2464  0.12964     C
C46    0.65687  0.19671  0.25365     C
H47    0.68886  0.16112  0.25198     H
C48    0.61219  0.29969  0.19996     C
H49    0.61342  0.33487  0.16122     H
C50    0.56416  0.30053  0.25979     C
H51    0.53267  0.33655  0.26189     H
N52     0.2725  0.19638  0.09697     N
H53    0.24346  0.19627  0.05694     H
H54    0.28901  0.15812  0.11507     H
N55    0.26724  0.31146  0.10369     N
H56    0.23816  0.31225  0.06372     H
H57     0.2803  0.34937  0.12629     H
C58     0.4391  0.25065  0.31746     C
C59    0.34088   0.2527  0.19602     C
C60    0.39188  0.30229  0.31387     C
H61    0.39289  0.33725   0.3529     H
C62    0.29117   0.2536  0.12964     C
C63    0.34313  0.30329  0.25365     C
H64    0.31113  0.33888  0.25198     H
C65    0.38781  0.20031  0.19996     C
H66    0.38658  0.16513  0.16122     H
C67    0.43584  0.19947  0.25979     C
H68    0.46733  0.16345  0.26189     H
O69    0.67509  0.55839  0.85833     O
H70    0.63393  0.55523  0.84474     H
H71    0.69566  0.53183  0.82663     H
O72    0.32491  0.44161  0.14167     O
H73    0.36607  0.44477  0.15526     H
O74    0.43631  0.54685  0.79846     O
O75     0.5481   0.5509  0.79605     O
C76    0.49317  0.54156  0.83167     C
C77    0.47068  0.45719   0.9413     C
C78     0.4952  0.52111  0.91921     C
C79    0.52367  0.56459  0.97657     C
C80    0.44082  0.41188  0.88433     C
H81    0.43577  0.42571  0.82993     H
C82    0.54583  0.63115  0.95626     C
H83    0.54163  0.64658  0.90238     H
C84    0.57276  0.67253   0.0128     C
H85    0.58662   0.7167  0.99825     H
C86    0.41965  0.34961  0.90666     C
H87    0.39957  0.32063  0.86799     H
O88    0.56369  0.45315  0.20154     O
O89     0.4519   0.4491  0.20395     O
C90    0.50683  0.45844  0.16833     C
C91    0.52932  0.54281   0.0587     C
C92     0.5048  0.47889  0.08079     C
C93    0.47633  0.43541  0.02343     C
C94    0.55918  0.58812  0.11567     C
H95    0.56422  0.57429  0.17007     H
C96    0.45417  0.36885  0.04374     C
H97    0.45837  0.35342  0.09762     H
C98    0.42724  0.32747   0.9872     C
H99    0.41338   0.2833  0.00175     H
C100   0.58035  0.65039  0.09334     C
H101   0.60043  0.67937  0.13201     H
H102   0.64545  0.44771   0.1463     H
O103    0.6866  0.43975  0.13585     O
H104   0.69357  0.45917  0.09104     H
O105   0.73057  0.50446  0.99742     O
H106   0.75873  0.48165  0.97015     H
H107   0.70412  0.52521  0.96568     H
O108   0.81025   0.4366  0.88585     O
H109   0.79083  0.44357  0.84104     H
H110   0.80229  0.39545   0.8963     H
loop_
_geom_bond_atom_site_label_1
_geom_bond_atom_site_label_2
_geom_bond_distance
_geom_bond_site_symmetry_2
_ccdc_geom_bond_type
H1    O74    1.93581       .     S
O74   H1     1.93581       .     S
H4    O75    2.00180       .     S
O75   H4     2.00180       .     S
H37   O103   2.03098       .     S
O103  H37    2.03098       .     S
H57   O72    2.04912       .     S
O72   H57    2.04912       .     S
H70   O75    1.88750       .     S
O75   H70    1.88750       .     S
H73   O89    1.88750       .     S
O89   H73    1.88750       .     S
H102  O88    1.86718       .     S
O88   H102   1.86718       .     S
H104  O105   1.94091   1_554     S
O105  H104   1.94092   1_556     S
H106  O108   1.95109       .     S
O108  H106   1.95109       .     S
H107  O69    1.98691       .     S
O69   H107   1.98691       .     S
N0    H1     0.87998       .     S
H1    N0     0.87998       .     S
N0    H2     0.88003       .     S
H2    N0     0.88003       .     S
N0    C11    1.31193       .     S
C11   N0     1.31193       .     S
N3    H4     0.88000       .     S
H4    N3     0.88000       .     S
N3    H5     0.87982       .     S
H5    N3     0.87982       .     S
N3    C11    1.31514       .     S
C11   N3     1.31514       .     S
C6    C7     1.54104       .     S
C7    C6     1.54104       .     S
C6    C9     1.38977       .     S
C9    C6     1.38977       .     S
C6    C16    1.39786       .     S
C16   C6     1.39786       .     S
C7    C24    1.54104       .     S
C24   C7     1.54104       .     S
C7    C41    1.54104       .     S
C41   C7     1.54104       .     S
C7    C58    1.54104       .     S
C58   C7     1.54104       .     S
C8    C11    1.47991       .     S
C11   C8     1.47991       .     S
C8    C12    1.38813       .     S
C12   C8     1.38813       .     S
C8    C14    1.39719       .     S
C14   C8     1.39719       .     S
C9    H10    0.94990       .     S
H10   C9     0.94990       .     S
C9    C12    1.39199       .     S
C12   C9     1.39199       .     S
C12   H13    0.94996       .     S
H13   C12    0.94996       .     S
C14   H15    0.94993       .     S
H15   C14    0.94993       .     S
C14   C16    1.37737       .     S
C16   C14    1.37737       .     S
C16   H17    0.95001       .     S
H17   C16    0.95001       .     S
N18   H19    0.87998   1_545     S
H19   N18    0.87998   1_565     S
N18   H20    0.87987       .     S
H20   N18    0.87987       .     S
N18   C28    1.31192       .     S
C28   N18    1.31192       .     S
N21   H22    0.88000   1_545     S
H22   N21    0.88001   1_565     S
N21   H23    0.87982       .     S
H23   N21    0.87982       .     S
N21   C28    1.31514       .     S
C28   N21    1.31514       .     S
C24   C26    1.38977       .     S
C26   C24    1.38977       .     S
C24   C33    1.39786       .     S
C33   C24    1.39786       .     S
C25   C28    1.47991       .     S
C28   C25    1.47991       .     S
C25   C29    1.38813       .     S
C29   C25    1.38813       .     S
C25   C31    1.39720       .     S
C31   C25    1.39720       .     S
C26   H27    0.94991       .     S
H27   C26    0.94991       .     S
C26   C29    1.39199       .     S
C29   C26    1.39199       .     S
C29   H30    0.95010       .     S
H30   C29    0.95010       .     S
C31   H32    0.94993       .     S
H32   C31    0.94993       .     S
C31   C33    1.37737       .     S
C33   C31    1.37737       .     S
C33   H34    0.95001       .     S
H34   C33    0.95001       .     S
N35   H36    0.88010       .     S
H36   N35    0.88010       .     S
N35   H37    0.87986       .     S
H37   N35    0.87986       .     S
N35   C45    1.31193       .     S
C45   N35    1.31193       .     S
N38   H39    0.88000       .     S
H39   N38    0.88000       .     S
N38   H40    0.87982       .     S
H40   N38    0.87982       .     S
N38   C45    1.31514       .     S
C45   N38    1.31514       .     S
C41   C43    1.38977       .     S
C43   C41    1.38977       .     S
C41   C50    1.39786       .     S
C50   C41    1.39786       .     S
C42   C45    1.47991       .     S
C45   C42    1.47991       .     S
C42   C46    1.38813       .     S
C46   C42    1.38813       .     S
C42   C48    1.39720       .     S
C48   C42    1.39720       .     S
C43   H44    0.94991       .     S
H44   C43    0.94991       .     S
C43   C46    1.39199       .     S
C46   C43    1.39199       .     S
C46   H47    0.94996       .     S
H47   C46    0.94996       .     S
C48   H49    0.94993       .     S
H49   C48    0.94993       .     S
C48   C50    1.37737       .     S
C50   C48    1.37737       .     S
C50   H51    0.95000       .     S
H51   C50    0.95000       .     S
N52   H53    0.88010       .     S
H53   N52    0.88010       .     S
N52   H54    0.87986       .     S
H54   N52    0.87986       .     S
N52   C62    1.31192       .     S
C62   N52    1.31192       .     S
N55   H56    0.88000       .     S
H56   N55    0.88000       .     S
N55   H57    0.87982       .     S
H57   N55    0.87982       .     S
N55   C62    1.31514       .     S
C62   N55    1.31514       .     S
C58   C60    1.38977       .     S
C60   C58    1.38977       .     S
C58   C67    1.39786       .     S
C67   C58    1.39786       .     S
C59   C62    1.47991       .     S
C62   C59    1.47991       .     S
C59   C63    1.38813       .     S
C63   C59    1.38813       .     S
C59   C65    1.39720       .     S
C65   C59    1.39720       .     S
C60   H61    0.94990       .     S
H61   C60    0.94990       .     S
C60   C63    1.39199       .     S
C63   C60    1.39199       .     S
C63   H64    0.95010       .     S
H64   C63    0.95010       .     S
C65   H66    0.94993       .     S
H66   C65    0.94993       .     S
C65   C67    1.37737       .     S
C67   C65    1.37737       .     S
C67   H68    0.95000       .     S
H68   C67    0.95000       .     S
O69   H70    0.84970       .     S
H70   O69    0.84970       .     S
O69   H71    0.84963       .     S
H71   O69    0.84963       .     S
O72   H73    0.84970       .     S
H73   O72    0.84970       .     S
O74   C76    1.26039       .     S
C76   O74    1.26039       .     S
O75   C76    1.25410       .     S
C76   O75    1.25410       .     S
C76   C78    1.51083       .     S
C78   C76    1.51083       .     S
C77   C78    1.40720       .     S
C78   C77    1.40720       .     S
C77   C80    1.43378       .     S
C80   C77    1.43378       .     S
C77   C93    1.43603   1_556     S
C93   C77    1.43603   1_554     S
C78   C79    1.40432       .     S
C79   C78    1.40432       .     S
C79   C82    1.43235       .     S
C82   C79    1.43235       .     S
C79   C91    1.43602   1_556     S
C91   C79    1.43603   1_554     S
C80   H81    0.95006       .     S
H81   C80    0.95006       .     S
C80   C86    1.35680       .     S
C86   C80    1.35680       .     S
C82   H83    0.94995       .     S
H83   C82    0.94995       .     S
C82   C84    1.35742   1_556     S
C84   C82    1.35742   1_554     S
C84   H85    0.94988   1_554     S
H85   C84    0.94988   1_556     S
C84   C100   1.41671       .     S
C100  C84    1.41671       .     S
C86   H87    0.94995       .     S
H87   C86    0.94995       .     S
C86   C98    1.41671       .     S
C98   C86    1.41671       .     S
O88   C90    1.26039       .     S
C90   O88    1.26039       .     S
O89   C90    1.25410       .     S
C90   O89    1.25410       .     S
C90   C92    1.51083       .     S
C92   C90    1.51083       .     S
C91   C92    1.40720       .     S
C92   C91    1.40720       .     S
C91   C94    1.43378       .     S
C94   C91    1.43378       .     S
C92   C93    1.40433       .     S
C93   C92    1.40433       .     S
C93   C96    1.43235       .     S
C96   C93    1.43235       .     S
C94   H95    0.95004       .     S
H95   C94    0.95004       .     S
C94   C100   1.35680       .     S
C100  C94    1.35680       .     S
C96   H97    0.94995       .     S
H97   C96    0.94995       .     S
C96   C98    1.35742   1_554     S
C98   C96    1.35742   1_556     S
C98   H99    0.94988   1_556     S
H99   C98    0.94988   1_554     S
C100  H101   0.94995       .     S
H101  C100   0.94995       .     S
H102  O103   0.84961       .     S
O103  H102   0.84961       .     S
O103  H104   0.84979       .     S
H104  O103   0.84979       .     S
O105  H106   0.84997       .     S
H106  O105   0.84997       .     S
O105  H107   0.85042       .     S
H107  O105   0.85042       .     S
O108  H109   0.84979       .     S
H109  O108   0.84979       .     S
O108  H110   0.84961       .     S
H110  O108   0.84961       .     S
O74   H1     1.93581       .     S
H1    O74    1.93581       .     S
O75   H4     2.00180       .     S
H4    O75    2.00180       .     S
O103  H37    2.03098       .     S
H37   O103   2.03098       .     S
O72   H57    2.04912       .     S
H57   O72    2.04912       .     S
O75   H70    1.88750       .     S
H70   O75    1.88750       .     S
O89   H73    1.88750       .     S
H73   O89    1.88750       .     S
O88   H102   1.86718       .     S
H102  O88    1.86718       .     S
O105  H104   1.94092   1_556     S
H104  O105   1.94091   1_554     S
O108  H106   1.95109       .     S
H106  O108   1.95109       .     S
O69   H107   1.98691       .     S
H107  O69    1.98691       .     S
H1    N0     0.87998       .     S
N0    H1     0.87998       .     S
H2    N0     0.88003       .     S
N0    H2     0.88003       .     S
C11   N0     1.31193       .     S
N0    C11    1.31193       .     S
H4    N3     0.88000       .     S
N3    H4     0.88000       .     S
H5    N3     0.87982       .     S
N3    H5     0.87982       .     S
C11   N3     1.31514       .     S
N3    C11    1.31514       .     S
C7    C6     1.54104       .     S
C6    C7     1.54104       .     S
C9    C6     1.38977       .     S
C6    C9     1.38977       .     S
C16   C6     1.39786       .     S
C6    C16    1.39786       .     S
C24   C7     1.54104       .     S
C7    C24    1.54104       .     S
C41   C7     1.54104       .     S
C7    C41    1.54104       .     S
C58   C7     1.54104       .     S
C7    C58    1.54104       .     S
C11   C8     1.47991       .     S
C8    C11    1.47991       .     S
C12   C8     1.38813       .     S
C8    C12    1.38813       .     S
C14   C8     1.39719       .     S
C8    C14    1.39719       .     S
H10   C9     0.94990       .     S
C9    H10    0.94990       .     S
C12   C9     1.39199       .     S
C9    C12    1.39199       .     S
H13   C12    0.94996       .     S
C12   H13    0.94996       .     S
H15   C14    0.94993       .     S
C14   H15    0.94993       .     S
C16   C14    1.37737       .     S
C14   C16    1.37737       .     S
H17   C16    0.95001       .     S
C16   H17    0.95001       .     S
H19   N18    0.87998   1_565     S
N18   H19    0.87998   1_545     S
H20   N18    0.87987       .     S
N18   H20    0.87987       .     S
C28   N18    1.31192       .     S
N18   C28    1.31192       .     S
H22   N21    0.88001   1_565     S
N21   H22    0.88000   1_545     S
H23   N21    0.87982       .     S
N21   H23    0.87982       .     S
C28   N21    1.31514       .     S
N21   C28    1.31514       .     S
C26   C24    1.38977       .     S
C24   C26    1.38977       .     S
C33   C24    1.39786       .     S
C24   C33    1.39786       .     S
C28   C25    1.47991       .     S
C25   C28    1.47991       .     S
C29   C25    1.38813       .     S
C25   C29    1.38813       .     S
C31   C25    1.39720       .     S
C25   C31    1.39720       .     S
H27   C26    0.94991       .     S
C26   H27    0.94991       .     S
C29   C26    1.39199       .     S
C26   C29    1.39199       .     S
H30   C29    0.95010       .     S
C29   H30    0.95010       .     S
H32   C31    0.94993       .     S
C31   H32    0.94993       .     S
C33   C31    1.37737       .     S
C31   C33    1.37737       .     S
H34   C33    0.95001       .     S
C33   H34    0.95001       .     S
H36   N35    0.88010       .     S
N35   H36    0.88010       .     S
H37   N35    0.87986       .     S
N35   H37    0.87986       .     S
C45   N35    1.31193       .     S
N35   C45    1.31193       .     S
H39   N38    0.88000       .     S
N38   H39    0.88000       .     S
H40   N38    0.87982       .     S
N38   H40    0.87982       .     S
C45   N38    1.31514       .     S
N38   C45    1.31514       .     S
C43   C41    1.38977       .     S
C41   C43    1.38977       .     S
C50   C41    1.39786       .     S
C41   C50    1.39786       .     S
C45   C42    1.47991       .     S
C42   C45    1.47991       .     S
C46   C42    1.38813       .     S
C42   C46    1.38813       .     S
C48   C42    1.39720       .     S
C42   C48    1.39720       .     S
H44   C43    0.94991       .     S
C43   H44    0.94991       .     S
C46   C43    1.39199       .     S
C43   C46    1.39199       .     S
H47   C46    0.94996       .     S
C46   H47    0.94996       .     S
H49   C48    0.94993       .     S
C48   H49    0.94993       .     S
C50   C48    1.37737       .     S
C48   C50    1.37737       .     S
H51   C50    0.95000       .     S
C50   H51    0.95000       .     S
H53   N52    0.88010       .     S
N52   H53    0.88010       .     S
H54   N52    0.87986       .     S
N52   H54    0.87986       .     S
C62   N52    1.31192       .     S
N52   C62    1.31192       .     S
H56   N55    0.88000       .     S
N55   H56    0.88000       .     S
H57   N55    0.87982       .     S
N55   H57    0.87982       .     S
C62   N55    1.31514       .     S
N55   C62    1.31514       .     S
C60   C58    1.38977       .     S
C58   C60    1.38977       .     S
C67   C58    1.39786       .     S
C58   C67    1.39786       .     S
C62   C59    1.47991       .     S
C59   C62    1.47991       .     S
C63   C59    1.38813       .     S
C59   C63    1.38813       .     S
C65   C59    1.39720       .     S
C59   C65    1.39720       .     S
H61   C60    0.94990       .     S
C60   H61    0.94990       .     S
C63   C60    1.39199       .     S
C60   C63    1.39199       .     S
H64   C63    0.95010       .     S
C63   H64    0.95010       .     S
H66   C65    0.94993       .     S
C65   H66    0.94993       .     S
C67   C65    1.37737       .     S
C65   C67    1.37737       .     S
H68   C67    0.95000       .     S
C67   H68    0.95000       .     S
H70   O69    0.84970       .     S
O69   H70    0.84970       .     S
H71   O69    0.84963       .     S
O69   H71    0.84963       .     S
H73   O72    0.84970       .     S
O72   H73    0.84970       .     S
C76   O74    1.26039       .     S
O74   C76    1.26039       .     S
C76   O75    1.25410       .     S
O75   C76    1.25410       .     S
C78   C76    1.51083       .     S
C76   C78    1.51083       .     S
C78   C77    1.40720       .     S
C77   C78    1.40720       .     S
C80   C77    1.43378       .     S
C77   C80    1.43378       .     S
C93   C77    1.43603   1_554     S
C77   C93    1.43603   1_556     S
C79   C78    1.40432       .     S
C78   C79    1.40432       .     S
C82   C79    1.43235       .     S
C79   C82    1.43235       .     S
C91   C79    1.43603   1_554     S
C79   C91    1.43602   1_556     S
H81   C80    0.95006       .     S
C80   H81    0.95006       .     S
C86   C80    1.35680       .     S
C80   C86    1.35680       .     S
H83   C82    0.94995       .     S
C82   H83    0.94995       .     S
C84   C82    1.35742   1_554     S
C82   C84    1.35742   1_556     S
H85   C84    0.94988   1_556     S
C84   H85    0.94988   1_554     S
C100  C84    1.41671       .     S
C84   C100   1.41671       .     S
H87   C86    0.94995       .     S
C86   H87    0.94995       .     S
C98   C86    1.41671       .     S
C86   C98    1.41671       .     S
C90   O88    1.26039       .     S
O88   C90    1.26039       .     S
C90   O89    1.25410       .     S
O89   C90    1.25410       .     S
C92   C90    1.51083       .     S
C90   C92    1.51083       .     S
C92   C91    1.40720       .     S
C91   C92    1.40720       .     S
C94   C91    1.43378       .     S
C91   C94    1.43378       .     S
C93   C92    1.40433       .     S
C92   C93    1.40433       .     S
C96   C93    1.43235       .     S
C93   C96    1.43235       .     S
H95   C94    0.95004       .     S
C94   H95    0.95004       .     S
C100  C94    1.35680       .     S
C94   C100   1.35680       .     S
H97   C96    0.94995       .     S
C96   H97    0.94995       .     S
C98   C96    1.35742   1_556     S
C96   C98    1.35742   1_554     S
H99   C98    0.94988   1_554     S
C98   H99    0.94988   1_556     S
H101  C100   0.94995       .     S
C100  H101   0.94995       .     S
O103  H102   0.84961       .     S
H102  O103   0.84961       .     S
H104  O103   0.84979       .     S
O103  H104   0.84979       .     S
H106  O105   0.84997       .     S
O105  H106   0.84997       .     S
H107  O105   0.85042       .     S
O105  H107   0.85042       .     S
H109  O108   0.84979       .     S
O108  H109   0.84979       .     S
H110  O108   0.84961       .     S
O108  H110   0.84961       .     S
