data_I
_chemical_name_common  '/data/user2/wty/HOF/MOFDiff/mofdiff/data/test/293-cbiphenyl'
_cell_length_a 17.08820
_cell_length_b 17.08820
_cell_length_c 15.61630
_cell_angle_alpha 90.00000
_cell_angle_beta  90.00000
_cell_angle_gamma 90.00000
_space_group_name_H-M_alt      'P 1'


loop_
_space_group_symop_operation_xyz
  'x, y, z' 

loop_
_atom_site_label
_atom_site_fract_x
_atom_site_fract_y
_atom_site_fract_z
_atom_site_type_symbol
H0       0.603      0.5   0.3242     H
N1      0.5871   0.4936   0.2722     N
N2      0.4682    0.544   0.3054     N
C3      0.5133   0.5054   0.2522     C
C4      0.4819   0.4785   0.1694     C
C5      0.4158   0.5132   0.1339     C
C6      0.3842   0.4847   0.0593     C
C7      0.4167   0.4216   0.0175     C
C8      0.4842   0.3896   0.0515     C
C9      0.5162    0.417   0.1258     C
C10     0.3771   0.3857   0.9413     C
C11     0.2957   0.3882   0.9339     C
C12     0.2574   0.3479    0.871     C
C13     0.2982   0.3021   0.8115     C
C14     0.3794   0.3018   0.8171     C
C15     0.4189   0.3423   0.8809     C
C16       0.25     0.25     0.75     C
H17     0.3936   0.5553   0.1613     H
H18     0.3409   0.5086   0.0366     H
H19     0.5077   0.3489   0.0234     H
H20      0.561   0.3947   0.1471     H
H21     0.2668   0.4178   0.9721     H
H22     0.2038   0.3505   0.8671     H
H23     0.4082   0.2726    0.778     H
H24      0.473     0.34   0.8837     H
H25      0.608     0.45    0.258     H
H26      0.486    0.559    0.354     H
H27     0.4188    0.549    0.296     H
N28     0.0064   0.5871   0.2278     N
N29      0.956   0.4682   0.1946     N
C30     0.9946   0.5133   0.2478     C
C31     0.0215   0.4819   0.3306     C
C32     0.9868   0.4158   0.3661     C
C33     0.0153   0.3842   0.4407     C
C34     0.0784   0.4167   0.4825     C
C35     0.1104   0.4842   0.4485     C
C36      0.083   0.5162   0.3742     C
C37     0.1143   0.3771   0.5587     C
C38     0.1118   0.2957   0.5661     C
C39     0.1521   0.2574    0.629     C
C40     0.1979   0.2982   0.6885     C
C41     0.1982   0.3794   0.6829     C
C42     0.1577   0.4189   0.6191     C
H43     0.9447   0.3936   0.3387     H
H44     0.9914   0.3409   0.4634     H
H45     0.1511   0.5077   0.4766     H
H46     0.1053    0.561   0.3529     H
H47     0.0822   0.2668   0.5279     H
H48     0.1495   0.2038   0.6329     H
H49     0.2274   0.4082    0.722     H
H50       0.16    0.473   0.6163     H
H51        0.0    0.603   0.1758     H
H52       0.05    0.608    0.242     H
H53      0.941    0.486    0.146     H
H54      0.951   0.4188    0.204     H
N55     0.9129   0.0064   0.2722     N
N56     0.0318    0.956   0.3054     N
C57     0.9867   0.9946   0.2522     C
C58     0.0181   0.0215   0.1694     C
C59     0.0842   0.9868   0.1339     C
C60     0.1158   0.0153   0.0593     C
C61     0.0833   0.0784   0.0175     C
C62     0.0158   0.1104   0.0515     C
C63     0.9838    0.083   0.1258     C
C64     0.1229   0.1143   0.9413     C
C65     0.2043   0.1118   0.9339     C
C66     0.2426   0.1521    0.871     C
C67     0.2018   0.1979   0.8115     C
C68     0.1206   0.1982   0.8171     C
C69     0.0811   0.1577   0.8809     C
H70     0.1064   0.9447   0.1613     H
H71     0.1591   0.9914   0.0366     H
H72     0.9923   0.1511   0.0234     H
H73      0.939   0.1053   0.1471     H
H74     0.2332   0.0822   0.9721     H
H75     0.2962   0.1495   0.8671     H
H76     0.0918   0.2274    0.778     H
H77      0.027     0.16   0.8837     H
H78      0.897      0.0   0.3242     H
H79      0.892     0.05    0.258     H
H80      0.014    0.941    0.354     H
H81     0.0812    0.951    0.296     H
N82     0.4936   0.9129   0.2278     N
N83      0.544   0.0318   0.1946     N
C84     0.5054   0.9867   0.2478     C
C85     0.4785   0.0181   0.3306     C
C86     0.5132   0.0842   0.3661     C
C87     0.4847   0.1158   0.4407     C
C88     0.4216   0.0833   0.4825     C
C89     0.3896   0.0158   0.4485     C
C90      0.417   0.9838   0.3742     C
C91     0.3857   0.1229   0.5587     C
C92     0.3882   0.2043   0.5661     C
C93     0.3479   0.2426    0.629     C
C94     0.3021   0.2018   0.6885     C
C95     0.3018   0.1206   0.6829     C
C96     0.3423   0.0811   0.6191     C
H97     0.5553   0.1064   0.3387     H
H98     0.5086   0.1591   0.4634     H
H99     0.3489   0.9923   0.4766     H
H100    0.3947    0.939   0.3529     H
H101    0.4178   0.2332   0.5279     H
H102    0.3505   0.2962   0.6329     H
H103    0.2726   0.0918    0.722     H
H104      0.34    0.027   0.6163     H
H105       0.5    0.897   0.1758     H
H106      0.45    0.892    0.242     H
H107     0.559    0.014    0.146     H
H108     0.549   0.0812    0.204     H
O109    0.9755   0.6256   0.0593     O
O110    0.5197   0.5981   0.4627     O
O111    0.6256   0.5245   0.4407     O
C112    0.5882   0.5749   0.4824     C
C113    0.6263   0.6123   0.5585     C
C114    0.5836   0.6509   0.6224     C
C115    0.6227    0.692   0.6872     C
C116    0.7033   0.6958   0.6891     C
C117    0.7455   0.6559    0.626     C
C118    0.7073   0.6147   0.5628     C
C119      0.75     0.75     0.75     C
H120    0.5297   0.6505   0.6211     H
H121     0.594   0.7177   0.7294     H
H122       0.8   0.6575   0.6257     H
H123    0.7366   0.5875   0.5229     H
O124    0.9019   0.5197   0.0373     O
C125    0.9251   0.5882   0.0176     C
C126    0.8877   0.6263   0.9415     C
C127    0.8491   0.5836   0.8776     C
C128     0.808   0.6227   0.8128     C
C129    0.8042   0.7033   0.8109     C
C130    0.8441   0.7455    0.874     C
C131    0.8853   0.7073   0.9372     C
H132    0.8495   0.5297   0.8789     H
H133    0.7823    0.594   0.7706     H
H134    0.8425      0.8   0.8743     H
H135    0.9125   0.7366   0.9771     H
O136    0.9803   0.9019   0.4627     O
O137    0.8744   0.9755   0.4407     O
C138    0.9118   0.9251   0.4824     C
C139    0.8737   0.8877   0.5585     C
C140    0.9164   0.8491   0.6224     C
C141    0.8773    0.808   0.6872     C
C142    0.7967   0.8042   0.6891     C
C143    0.7545   0.8441    0.626     C
C144    0.7927   0.8853   0.5628     C
H145    0.9703   0.8495   0.6211     H
H146     0.906   0.7823   0.7294     H
H147       0.7   0.8425   0.6257     H
H148    0.7634   0.9125   0.5229     H
O149    0.5981   0.9803   0.0373     O
O150    0.5245   0.8744   0.0593     O
C151    0.5749   0.9118   0.0176     C
C152    0.6123   0.8737   0.9415     C
C153    0.6509   0.9164   0.8776     C
C154     0.692   0.8773   0.8128     C
C155    0.6958   0.7967   0.8109     C
C156    0.6559   0.7545    0.874     C
C157    0.6147   0.7927   0.9372     C
H158    0.6505   0.9703   0.8789     H
H159    0.7177    0.906   0.7706     H
H160    0.6575      0.7   0.8743     H
H161    0.5875   0.7634   0.9771     H
loop_
_geom_bond_atom_site_label_1
_geom_bond_atom_site_label_2
_geom_bond_distance
_geom_bond_site_symmetry_2
_ccdc_geom_bond_type
H0    O111   1.90638       .     S
O111  H0     1.90638       .     S
H26   O110   1.91299       .     S
O110  H26    1.91299       .     S
H51   O109   1.90638   1_455     S
O109  H51    1.90638   1_655     S
H53   O124   1.91299       .     S
O124  H53    1.91299       .     S
H78   O137   1.90638   1_545     S
O137  H78    1.90638   1_565     S
H80   O136   1.91299   1_455     S
O136  H80    1.91299   1_655     S
H105  O150   1.90638       .     S
O150  H105   1.90638       .     S
H107  O149   1.91299   1_545     S
O149  H107   1.91299   1_565     S
H0    N1     0.86325       .     S
N1    H0     0.86325       .     S
N1    C3     1.31476       .     S
C3    N1     1.31476       .     S
N1    H25    0.85546       .     S
H25   N1     0.85546       .     S
N2    C3     1.31119       .     S
C3    N2     1.31119       .     S
N2    H26    0.85687       .     S
H26   N2     0.85687       .     S
N2    H27    0.86107       .     S
H27   N2     0.86107       .     S
C3    C4     1.47348       .     S
C4    C3     1.47348       .     S
C4    C5     1.39096       .     S
C5    C4     1.39096       .     S
C4    C9     1.38260       .     S
C9    C4     1.38260       .     S
C5    C6     1.37329       .     S
C6    C5     1.37329       .     S
C5    H17    0.91900       .     S
H17   C5     0.91900       .     S
C6    C7     1.37738       .     S
C7    C6     1.37738       .     S
C6    H18    0.91648       .     S
H18   C6     0.91648       .     S
C7    C8     1.38253       .     S
C8    C7     1.38253       .     S
C7    C10    1.50009   1_554     S
C10   C7     1.50009   1_556     S
C8    C9     1.36547       .     S
C9    C8     1.36547       .     S
C8    H19    0.91517       .     S
H19   C8     0.91517       .     S
C9    H20    0.91756       .     S
H20   C9     0.91756       .     S
C10   C11    1.39642       .     S
C11   C10    1.39642       .     S
C10   C15    1.39638       .     S
C15   C10    1.39638       .     S
C11   C12    1.36654       .     S
C12   C11    1.36654       .     S
C11   H21    0.92498       .     S
H21   C11    0.92498       .     S
C12   C13    1.40070       .     S
C13   C12    1.40070       .     S
C12   H22    0.91903       .     S
H22   C12    0.91903       .     S
C13   C14    1.39032       .     S
C14   C13    1.39032       .     S
C13   C16    1.54706       .     S
C16   C13    1.54706       .     S
C14   C15    1.38824       .     S
C15   C14    1.38824       .     S
C14   H23    0.92952       .     S
H23   C14    0.92952       .     S
C15   H24    0.92634       .     S
H24   C15    0.92634       .     S
C16   C40    1.54706       .     S
C40   C16    1.54706       .     S
C16   C67    1.54706       .     S
C67   C16    1.54706       .     S
C16   C94    1.54706       .     S
C94   C16    1.54706       .     S
N28   C30    1.31476   1_455     S
C30   N28    1.31476   1_655     S
N28   H51    0.86325       .     S
H51   N28    0.86325       .     S
N28   H52    0.85546       .     S
H52   N28    0.85546       .     S
N29   C30    1.31119       .     S
C30   N29    1.31119       .     S
N29   H53    0.85687       .     S
H53   N29    0.85687       .     S
N29   H54    0.86107       .     S
H54   N29    0.86107       .     S
C30   C31    1.47348   1_655     S
C31   C30    1.47348   1_455     S
C31   C32    1.39096   1_455     S
C32   C31    1.39096   1_655     S
C31   C36    1.38260       .     S
C36   C31    1.38260       .     S
C32   C33    1.37329   1_655     S
C33   C32    1.37329   1_455     S
C32   H43    0.91900       .     S
H43   C32    0.91900       .     S
C33   C34    1.37738       .     S
C34   C33    1.37738       .     S
C33   H44    0.91648   1_455     S
H44   C33    0.91648   1_655     S
C34   C35    1.38253       .     S
C35   C34    1.38253       .     S
C34   C37    1.50009       .     S
C37   C34    1.50009       .     S
C35   C36    1.36547       .     S
C36   C35    1.36547       .     S
C35   H45    0.91517       .     S
H45   C35    0.91517       .     S
C36   H46    0.91756       .     S
H46   C36    0.91756       .     S
C37   C38    1.39642       .     S
C38   C37    1.39642       .     S
C37   C42    1.39638       .     S
C42   C37    1.39638       .     S
C38   C39    1.36654       .     S
C39   C38    1.36654       .     S
C38   H47    0.92498       .     S
H47   C38    0.92498       .     S
C39   C40    1.40070       .     S
C40   C39    1.40070       .     S
C39   H48    0.91903       .     S
H48   C39    0.91903       .     S
C40   C41    1.39032       .     S
C41   C40    1.39032       .     S
C41   C42    1.38824       .     S
C42   C41    1.38824       .     S
C41   H49    0.92952       .     S
H49   C41    0.92952       .     S
C42   H50    0.92634       .     S
H50   C42    0.92634       .     S
N55   C57    1.31476   1_545     S
C57   N55    1.31476   1_565     S
N55   H78    0.86325       .     S
H78   N55    0.86325       .     S
N55   H79    0.85546       .     S
H79   N55    0.85546       .     S
N56   C57    1.31120   1_455     S
C57   N56    1.31120   1_655     S
N56   H80    0.85687       .     S
H80   N56    0.85687       .     S
N56   H81    0.86107       .     S
H81   N56    0.86107       .     S
C57   C58    1.47348   1_665     S
C58   C57    1.47348   1_445     S
C58   C59    1.39096   1_545     S
C59   C58    1.39096   1_565     S
C58   C63    1.38260   1_455     S
C63   C58    1.38259   1_655     S
C59   C60    1.37329   1_565     S
C60   C59    1.37329   1_545     S
C59   H70    0.91900       .     S
H70   C59    0.91900       .     S
C60   C61    1.37738       .     S
C61   C60    1.37738       .     S
C60   H71    0.91648   1_545     S
H71   C60    0.91648   1_565     S
C61   C62    1.38253       .     S
C62   C61    1.38253       .     S
C61   C64    1.50009   1_554     S
C64   C61    1.50009   1_556     S
C62   C63    1.36547   1_455     S
C63   C62    1.36547   1_655     S
C62   H72    0.91517   1_455     S
H72   C62    0.91517   1_655     S
C63   H73    0.91756       .     S
H73   C63    0.91756       .     S
C64   C65    1.39643       .     S
C65   C64    1.39643       .     S
C64   C69    1.39638       .     S
C69   C64    1.39638       .     S
C65   C66    1.36654       .     S
C66   C65    1.36654       .     S
C65   H74    0.92498       .     S
H74   C65    0.92498       .     S
C66   C67    1.40070       .     S
C67   C66    1.40070       .     S
C66   H75    0.91903       .     S
H75   C66    0.91903       .     S
C67   C68    1.39032       .     S
C68   C67    1.39032       .     S
C68   C69    1.38824       .     S
C69   C68    1.38824       .     S
C68   H76    0.92952       .     S
H76   C68    0.92952       .     S
C69   H77    0.92634       .     S
H77   C69    0.92634       .     S
N82   C84    1.31476       .     S
C84   N82    1.31476       .     S
N82   H105   0.86325       .     S
H105  N82    0.86325       .     S
N82   H106   0.85546       .     S
H106  N82    0.85546       .     S
N83   C84    1.31119   1_545     S
C84   N83    1.31120   1_565     S
N83   H107   0.85687       .     S
H107  N83    0.85687       .     S
N83   H108   0.86107       .     S
H108  N83    0.86107       .     S
C84   C85    1.47348   1_565     S
C85   C84    1.47348   1_545     S
C85   C86    1.39096       .     S
C86   C85    1.39096       .     S
C85   C90    1.38260   1_545     S
C90   C85    1.38260   1_565     S
C86   C87    1.37329       .     S
C87   C86    1.37329       .     S
C86   H97    0.91900       .     S
H97   C86    0.91900       .     S
C87   C88    1.37738       .     S
C88   C87    1.37738       .     S
C87   H98    0.91648       .     S
H98   C87    0.91648       .     S
C88   C89    1.38253       .     S
C89   C88    1.38253       .     S
C88   C91    1.50009       .     S
C91   C88    1.50009       .     S
C89   C90    1.36547   1_545     S
C90   C89    1.36547   1_565     S
C89   H99    0.91517   1_545     S
H99   C89    0.91517   1_565     S
C90   H100   0.91756       .     S
H100  C90    0.91756       .     S
C91   C92    1.39642       .     S
C92   C91    1.39642       .     S
C91   C96    1.39638       .     S
C96   C91    1.39638       .     S
C92   C93    1.36654       .     S
C93   C92    1.36654       .     S
C92   H101   0.92498       .     S
H101  C92    0.92498       .     S
C93   C94    1.40070       .     S
C94   C93    1.40070       .     S
C93   H102   0.91903       .     S
H102  C93    0.91903       .     S
C94   C95    1.39032       .     S
C95   C94    1.39032       .     S
C95   C96    1.38824       .     S
C96   C95    1.38824       .     S
C95   H103   0.92952       .     S
H103  C95    0.92952       .     S
C96   H104   0.92634       .     S
H104  C96    0.92634       .     S
O109  C125   1.25469       .     S
C125  O109   1.25469       .     S
O110  C112   1.27357       .     S
C112  O110   1.27357       .     S
O111  C112   1.25469       .     S
C112  O111   1.25469       .     S
C112  C113   1.49821       .     S
C113  C112   1.49821       .     S
C113  C114   1.40116       .     S
C114  C113   1.40116       .     S
C113  C118   1.38638       .     S
C118  C113   1.38638       .     S
C114  C115   1.40132       .     S
C115  C114   1.40132       .     S
C114  H120   0.92130       .     S
H120  C114   0.92130       .     S
C115  C116   1.37916       .     S
C116  C115   1.37916       .     S
C115  H121   0.93149       .     S
H121  C115   0.93149       .     S
C116  C117   1.39853       .     S
C117  C116   1.39853       .     S
C116  C119   1.54891       .     S
C119  C116   1.54891       .     S
C117  C118   1.37690       .     S
C118  C117   1.37690       .     S
C117  H122   0.93172       .     S
H122  C117   0.93172       .     S
C118  H123   0.92464       .     S
H123  C118   0.92464       .     S
C119  C129   1.54890       .     S
C129  C119   1.54890       .     S
C119  C142   1.54891       .     S
C142  C119   1.54891       .     S
C119  C155   1.54890       .     S
C155  C119   1.54890       .     S
O124  C125   1.27357       .     S
C125  O124   1.27357       .     S
C125  C126   1.49821   1_554     S
C126  C125   1.49821   1_556     S
C126  C127   1.40116       .     S
C127  C126   1.40116       .     S
C126  C131   1.38638       .     S
C131  C126   1.38638       .     S
C127  C128   1.40132       .     S
C128  C127   1.40132       .     S
C127  H132   0.92130       .     S
H132  C127   0.92130       .     S
C128  C129   1.37916       .     S
C129  C128   1.37916       .     S
C128  H133   0.93149       .     S
H133  C128   0.93149       .     S
C129  C130   1.39853       .     S
C130  C129   1.39853       .     S
C130  C131   1.37690       .     S
C131  C130   1.37690       .     S
C130  H134   0.93172       .     S
H134  C130   0.93172       .     S
C131  H135   0.92464       .     S
H135  C131   0.92464       .     S
O136  C138   1.27357       .     S
C138  O136   1.27357       .     S
O137  C138   1.25469       .     S
C138  O137   1.25469       .     S
C138  C139   1.49821       .     S
C139  C138   1.49821       .     S
C139  C140   1.40116       .     S
C140  C139   1.40116       .     S
C139  C144   1.38638       .     S
C144  C139   1.38638       .     S
C140  C141   1.40132       .     S
C141  C140   1.40132       .     S
C140  H145   0.92130       .     S
H145  C140   0.92130       .     S
C141  C142   1.37916       .     S
C142  C141   1.37916       .     S
C141  H146   0.93149       .     S
H146  C141   0.93149       .     S
C142  C143   1.39853       .     S
C143  C142   1.39853       .     S
C143  C144   1.37690       .     S
C144  C143   1.37690       .     S
C143  H147   0.93172       .     S
H147  C143   0.93172       .     S
C144  H148   0.92464       .     S
H148  C144   0.92464       .     S
O149  C151   1.27357       .     S
C151  O149   1.27357       .     S
O150  C151   1.25469       .     S
C151  O150   1.25469       .     S
C151  C152   1.49821   1_554     S
C152  C151   1.49821   1_556     S
C152  C153   1.40116       .     S
C153  C152   1.40116       .     S
C152  C157   1.38638       .     S
C157  C152   1.38638       .     S
C153  C154   1.40132       .     S
C154  C153   1.40132       .     S
C153  H158   0.92130       .     S
H158  C153   0.92130       .     S
C154  C155   1.37916       .     S
C155  C154   1.37916       .     S
C154  H159   0.93149       .     S
H159  C154   0.93149       .     S
C155  C156   1.39853       .     S
C156  C155   1.39853       .     S
C156  C157   1.37690       .     S
C157  C156   1.37690       .     S
C156  H160   0.93172       .     S
H160  C156   0.93172       .     S
C157  H161   0.92464       .     S
H161  C157   0.92464       .     S
O111  H0     1.90638       .     S
H0    O111   1.90638       .     S
O110  H26    1.91299       .     S
H26   O110   1.91299       .     S
O109  H51    1.90638   1_655     S
H51   O109   1.90638   1_455     S
O124  H53    1.91299       .     S
H53   O124   1.91299       .     S
O137  H78    1.90638   1_565     S
H78   O137   1.90638   1_545     S
O136  H80    1.91299   1_655     S
H80   O136   1.91299   1_455     S
O150  H105   1.90638       .     S
H105  O150   1.90638       .     S
O149  H107   1.91299   1_565     S
H107  O149   1.91299   1_545     S
N1    H0     0.86325       .     S
H0    N1     0.86325       .     S
C3    N1     1.31476       .     S
N1    C3     1.31476       .     S
H25   N1     0.85546       .     S
N1    H25    0.85546       .     S
C3    N2     1.31119       .     S
N2    C3     1.31119       .     S
H26   N2     0.85687       .     S
N2    H26    0.85687       .     S
H27   N2     0.86107       .     S
N2    H27    0.86107       .     S
C4    C3     1.47348       .     S
C3    C4     1.47348       .     S
C5    C4     1.39096       .     S
C4    C5     1.39096       .     S
C9    C4     1.38260       .     S
C4    C9     1.38260       .     S
C6    C5     1.37329       .     S
C5    C6     1.37329       .     S
H17   C5     0.91900       .     S
C5    H17    0.91900       .     S
C7    C6     1.37738       .     S
C6    C7     1.37738       .     S
H18   C6     0.91648       .     S
C6    H18    0.91648       .     S
C8    C7     1.38253       .     S
C7    C8     1.38253       .     S
C10   C7     1.50009   1_556     S
C7    C10    1.50009   1_554     S
C9    C8     1.36547       .     S
C8    C9     1.36547       .     S
H19   C8     0.91517       .     S
C8    H19    0.91517       .     S
H20   C9     0.91756       .     S
C9    H20    0.91756       .     S
C11   C10    1.39642       .     S
C10   C11    1.39642       .     S
C15   C10    1.39638       .     S
C10   C15    1.39638       .     S
C12   C11    1.36654       .     S
C11   C12    1.36654       .     S
H21   C11    0.92498       .     S
C11   H21    0.92498       .     S
C13   C12    1.40070       .     S
C12   C13    1.40070       .     S
H22   C12    0.91903       .     S
C12   H22    0.91903       .     S
C14   C13    1.39032       .     S
C13   C14    1.39032       .     S
C16   C13    1.54706       .     S
C13   C16    1.54706       .     S
C15   C14    1.38824       .     S
C14   C15    1.38824       .     S
H23   C14    0.92952       .     S
C14   H23    0.92952       .     S
H24   C15    0.92634       .     S
C15   H24    0.92634       .     S
C40   C16    1.54706       .     S
C16   C40    1.54706       .     S
C67   C16    1.54706       .     S
C16   C67    1.54706       .     S
C94   C16    1.54706       .     S
C16   C94    1.54706       .     S
C30   N28    1.31476   1_655     S
N28   C30    1.31476   1_455     S
H51   N28    0.86325       .     S
N28   H51    0.86325       .     S
H52   N28    0.85546       .     S
N28   H52    0.85546       .     S
C30   N29    1.31119       .     S
N29   C30    1.31119       .     S
H53   N29    0.85687       .     S
N29   H53    0.85687       .     S
H54   N29    0.86107       .     S
N29   H54    0.86107       .     S
C31   C30    1.47348   1_455     S
C30   C31    1.47348   1_655     S
C32   C31    1.39096   1_655     S
C31   C32    1.39096   1_455     S
C36   C31    1.38260       .     S
C31   C36    1.38260       .     S
C33   C32    1.37329   1_455     S
C32   C33    1.37329   1_655     S
H43   C32    0.91900       .     S
C32   H43    0.91900       .     S
C34   C33    1.37738       .     S
C33   C34    1.37738       .     S
H44   C33    0.91648   1_655     S
C33   H44    0.91648   1_455     S
C35   C34    1.38253       .     S
C34   C35    1.38253       .     S
C37   C34    1.50009       .     S
C34   C37    1.50009       .     S
C36   C35    1.36547       .     S
C35   C36    1.36547       .     S
H45   C35    0.91517       .     S
C35   H45    0.91517       .     S
H46   C36    0.91756       .     S
C36   H46    0.91756       .     S
C38   C37    1.39642       .     S
C37   C38    1.39642       .     S
C42   C37    1.39638       .     S
C37   C42    1.39638       .     S
C39   C38    1.36654       .     S
C38   C39    1.36654       .     S
H47   C38    0.92498       .     S
C38   H47    0.92498       .     S
C40   C39    1.40070       .     S
C39   C40    1.40070       .     S
H48   C39    0.91903       .     S
C39   H48    0.91903       .     S
C41   C40    1.39032       .     S
C40   C41    1.39032       .     S
C42   C41    1.38824       .     S
C41   C42    1.38824       .     S
H49   C41    0.92952       .     S
C41   H49    0.92952       .     S
H50   C42    0.92634       .     S
C42   H50    0.92634       .     S
C57   N55    1.31476   1_565     S
N55   C57    1.31476   1_545     S
H78   N55    0.86325       .     S
N55   H78    0.86325       .     S
H79   N55    0.85546       .     S
N55   H79    0.85546       .     S
C57   N56    1.31120   1_655     S
N56   C57    1.31120   1_455     S
H80   N56    0.85687       .     S
N56   H80    0.85687       .     S
H81   N56    0.86107       .     S
N56   H81    0.86107       .     S
C58   C57    1.47348   1_445     S
C57   C58    1.47348   1_665     S
C59   C58    1.39096   1_565     S
C58   C59    1.39096   1_545     S
C63   C58    1.38259   1_655     S
C58   C63    1.38260   1_455     S
C60   C59    1.37329   1_545     S
C59   C60    1.37329   1_565     S
H70   C59    0.91900       .     S
C59   H70    0.91900       .     S
C61   C60    1.37738       .     S
C60   C61    1.37738       .     S
H71   C60    0.91648   1_565     S
C60   H71    0.91648   1_545     S
C62   C61    1.38253       .     S
C61   C62    1.38253       .     S
C64   C61    1.50009   1_556     S
C61   C64    1.50009   1_554     S
C63   C62    1.36547   1_655     S
C62   C63    1.36547   1_455     S
H72   C62    0.91517   1_655     S
C62   H72    0.91517   1_455     S
H73   C63    0.91756       .     S
C63   H73    0.91756       .     S
C65   C64    1.39643       .     S
C64   C65    1.39643       .     S
C69   C64    1.39638       .     S
C64   C69    1.39638       .     S
C66   C65    1.36654       .     S
C65   C66    1.36654       .     S
H74   C65    0.92498       .     S
C65   H74    0.92498       .     S
C67   C66    1.40070       .     S
C66   C67    1.40070       .     S
H75   C66    0.91903       .     S
C66   H75    0.91903       .     S
C68   C67    1.39032       .     S
C67   C68    1.39032       .     S
C69   C68    1.38824       .     S
C68   C69    1.38824       .     S
H76   C68    0.92952       .     S
C68   H76    0.92952       .     S
H77   C69    0.92634       .     S
C69   H77    0.92634       .     S
C84   N82    1.31476       .     S
N82   C84    1.31476       .     S
H105  N82    0.86325       .     S
N82   H105   0.86325       .     S
H106  N82    0.85546       .     S
N82   H106   0.85546       .     S
C84   N83    1.31120   1_565     S
N83   C84    1.31119   1_545     S
H107  N83    0.85687       .     S
N83   H107   0.85687       .     S
H108  N83    0.86107       .     S
N83   H108   0.86107       .     S
C85   C84    1.47348   1_545     S
C84   C85    1.47348   1_565     S
C86   C85    1.39096       .     S
C85   C86    1.39096       .     S
C90   C85    1.38260   1_565     S
C85   C90    1.38260   1_545     S
C87   C86    1.37329       .     S
C86   C87    1.37329       .     S
H97   C86    0.91900       .     S
C86   H97    0.91900       .     S
C88   C87    1.37738       .     S
C87   C88    1.37738       .     S
H98   C87    0.91648       .     S
C87   H98    0.91648       .     S
C89   C88    1.38253       .     S
C88   C89    1.38253       .     S
C91   C88    1.50009       .     S
C88   C91    1.50009       .     S
C90   C89    1.36547   1_565     S
C89   C90    1.36547   1_545     S
H99   C89    0.91517   1_565     S
C89   H99    0.91517   1_545     S
H100  C90    0.91756       .     S
C90   H100   0.91756       .     S
C92   C91    1.39642       .     S
C91   C92    1.39642       .     S
C96   C91    1.39638       .     S
C91   C96    1.39638       .     S
C93   C92    1.36654       .     S
C92   C93    1.36654       .     S
H101  C92    0.92498       .     S
C92   H101   0.92498       .     S
C94   C93    1.40070       .     S
C93   C94    1.40070       .     S
H102  C93    0.91903       .     S
C93   H102   0.91903       .     S
C95   C94    1.39032       .     S
C94   C95    1.39032       .     S
C96   C95    1.38824       .     S
C95   C96    1.38824       .     S
H103  C95    0.92952       .     S
C95   H103   0.92952       .     S
H104  C96    0.92634       .     S
C96   H104   0.92634       .     S
C125  O109   1.25469       .     S
O109  C125   1.25469       .     S
C112  O110   1.27357       .     S
O110  C112   1.27357       .     S
C112  O111   1.25469       .     S
O111  C112   1.25469       .     S
C113  C112   1.49821       .     S
C112  C113   1.49821       .     S
C114  C113   1.40116       .     S
C113  C114   1.40116       .     S
C118  C113   1.38638       .     S
C113  C118   1.38638       .     S
C115  C114   1.40132       .     S
C114  C115   1.40132       .     S
H120  C114   0.92130       .     S
C114  H120   0.92130       .     S
C116  C115   1.37916       .     S
C115  C116   1.37916       .     S
H121  C115   0.93149       .     S
C115  H121   0.93149       .     S
C117  C116   1.39853       .     S
C116  C117   1.39853       .     S
C119  C116   1.54891       .     S
C116  C119   1.54891       .     S
C118  C117   1.37690       .     S
C117  C118   1.37690       .     S
H122  C117   0.93172       .     S
C117  H122   0.93172       .     S
H123  C118   0.92464       .     S
C118  H123   0.92464       .     S
C129  C119   1.54890       .     S
C119  C129   1.54890       .     S
C142  C119   1.54891       .     S
C119  C142   1.54891       .     S
C155  C119   1.54890       .     S
C119  C155   1.54890       .     S
C125  O124   1.27357       .     S
O124  C125   1.27357       .     S
C126  C125   1.49821   1_556     S
C125  C126   1.49821   1_554     S
C127  C126   1.40116       .     S
C126  C127   1.40116       .     S
C131  C126   1.38638       .     S
C126  C131   1.38638       .     S
C128  C127   1.40132       .     S
C127  C128   1.40132       .     S
H132  C127   0.92130       .     S
C127  H132   0.92130       .     S
C129  C128   1.37916       .     S
C128  C129   1.37916       .     S
H133  C128   0.93149       .     S
C128  H133   0.93149       .     S
C130  C129   1.39853       .     S
C129  C130   1.39853       .     S
C131  C130   1.37690       .     S
C130  C131   1.37690       .     S
H134  C130   0.93172       .     S
C130  H134   0.93172       .     S
H135  C131   0.92464       .     S
C131  H135   0.92464       .     S
C138  O136   1.27357       .     S
O136  C138   1.27357       .     S
C138  O137   1.25469       .     S
O137  C138   1.25469       .     S
C139  C138   1.49821       .     S
C138  C139   1.49821       .     S
C140  C139   1.40116       .     S
C139  C140   1.40116       .     S
C144  C139   1.38638       .     S
C139  C144   1.38638       .     S
C141  C140   1.40132       .     S
C140  C141   1.40132       .     S
H145  C140   0.92130       .     S
C140  H145   0.92130       .     S
C142  C141   1.37916       .     S
C141  C142   1.37916       .     S
H146  C141   0.93149       .     S
C141  H146   0.93149       .     S
C143  C142   1.39853       .     S
C142  C143   1.39853       .     S
C144  C143   1.37690       .     S
C143  C144   1.37690       .     S
H147  C143   0.93172       .     S
C143  H147   0.93172       .     S
H148  C144   0.92464       .     S
C144  H148   0.92464       .     S
C151  O149   1.27357       .     S
O149  C151   1.27357       .     S
C151  O150   1.25469       .     S
O150  C151   1.25469       .     S
C152  C151   1.49821   1_556     S
C151  C152   1.49821   1_554     S
C153  C152   1.40116       .     S
C152  C153   1.40116       .     S
C157  C152   1.38638       .     S
C152  C157   1.38638       .     S
C154  C153   1.40132       .     S
C153  C154   1.40132       .     S
H158  C153   0.92130       .     S
C153  H158   0.92130       .     S
C155  C154   1.37916       .     S
C154  C155   1.37916       .     S
H159  C154   0.93149       .     S
C154  H159   0.93149       .     S
C156  C155   1.39853       .     S
C155  C156   1.39853       .     S
C157  C156   1.37690       .     S
C156  C157   1.37690       .     S
H160  C156   0.93172       .     S
C156  H160   0.93172       .     S
H161  C157   0.92464       .     S
C157  H161   0.92464       .     S
