data_I
_chemical_name_common  '/data/user2/wty/HOF/MOFDiff/mofdiff/data/test/293-bnh2'
_cell_length_a  9.57500
_cell_length_b 19.50300
_cell_length_c 22.66900
_cell_angle_alpha 93.21000
_cell_angle_beta  94.50000
_cell_angle_gamma 101.47000
_space_group_name_H-M_alt      'P 1'


loop_
_space_group_symop_operation_xyz
  'x, y, z' 

loop_
_atom_site_label
_atom_site_fract_x
_atom_site_fract_y
_atom_site_fract_z
_atom_site_type_symbol
O0      0.8781  0.05405  0.47375     O
C1      0.5823   0.0097   0.4525     C
H2     0.63917  0.01558   0.4199     H
C3      0.6492   0.0243   0.5094     C
C4      0.8079   0.0517   0.5194     C
C5      0.5662   0.0137    0.559     C
N6      0.6276   0.0194   0.6165     N
H7     0.57384  0.00851   0.6457     H
H8     0.72073  0.03398  0.62407     H
O9      0.8642  0.07101  0.56988     O
C10     0.4177   0.9903   0.5475     C
H11    0.36083  0.98442   0.5801     H
C12     0.3508   0.9757   0.4906     C
C13     0.1921   0.9483   0.4806     C
C14     0.4338   0.9863    0.441     C
N15     0.3724   0.9806   0.3835     N
H16    0.42616  0.99149   0.3543     H
H17    0.27927  0.96602  0.37593     H
O18     0.1358  0.92899  0.43012     O
O19     0.1219  0.94595  0.52625     O
H20    0.06107  0.30647  0.94508     H
C21      0.231   0.4332    0.582     C
C22     0.0816   0.3847  0.58567     C
C23     0.9598   0.4108   0.5939     C
H24    0.96769   0.4596   0.6031     H
C25     0.8266   0.3665    0.589     C
H26    0.74476  0.38592  0.59468     H
C27     0.8082   0.2951    0.576     C
C28     0.9318   0.2679   0.5686     C
H29    0.92381  0.21888  0.56054     H
C30     0.0651   0.3124    0.573     C
H31    0.14727  0.29327  0.56733     H
C32     0.4783   0.1639   0.5125     C
H33    0.44919  0.13105  0.47915     H
C34     0.6186   0.2004   0.5218     C
H35    0.68619  0.19054  0.49568     H
C36     0.6621   0.2511   0.5686     C
C37     0.5636   0.2626   0.6077     C
H38    0.59268  0.29701  0.63997     H
C39      0.424   0.2252   0.6007     C
H40    0.35865  0.23307  0.62854     H
C41     0.3793   0.1753   0.5522     C
C42     0.2271   0.1376   0.5435     C
C43     0.2221   0.5105  0.59603     C
C44     0.1957   0.5316   0.6533     C
H45    0.18523  0.49802  0.68231     H
C46     0.1842   0.5995   0.6692     C
H47    0.16734  0.61211  0.70873     H
C48     0.1973   0.6495   0.6277     C
C49      0.228   0.6304   0.5703     C
H50       0.24  0.66452  0.54182     H
C51     0.2413   0.5616   0.5546     C
H52    0.26339  0.54948  0.51573     H
C53     0.0809   0.8228   0.6158     C
H54    0.03182  0.84563  0.58732     H
C55      0.106   0.7564   0.6012     C
H56    0.07451  0.73402  0.56278     H
C57     0.1774   0.7226   0.6429     C
C58     0.2235   0.7559   0.6993     C
H59    0.27156  0.73304  0.72805     H
C60     0.1996   0.8215   0.7131     C
H61    0.23244  0.84416   0.7513     H
C62     0.1267   0.8558   0.6714     C
C63     0.0975   0.9261   0.6875     C
C64     0.2623   0.4167  0.51772     C
C65     0.3736   0.3838   0.5038     C
H66    0.44065  0.37611  0.53456     H
C67     0.3875   0.3624   0.4457     C
H68    0.46539  0.34106  0.43736     H
C69       0.29   0.3714   0.3991     C
C70     0.1787   0.4049   0.4134     C
H71    0.11131  0.41295  0.38286     H
C72     0.1671   0.4258   0.4709     C
H73    0.09002  0.44779  0.47928     H
C74     0.4457   0.3262   0.2577     C
H75     0.5375  0.33136   0.2433     H
C76     0.4327   0.3516   0.3148     C
H77    0.51629  0.37366  0.33944     H
C78     0.3055   0.3459   0.3359     C
C79     0.1783   0.3145   0.2992     C
H80    0.08733  0.31098  0.31412     H
C81     0.1879   0.2901   0.2438     C
H82    0.10285   0.2705  0.21919     H
C83     0.3227   0.2928    0.221     C
C84     0.3355   0.2611   0.1625     C
C85     0.3478   0.4199   0.6281     C
C86     0.3224   0.3743   0.6728     C
H87    0.22943  0.34648  0.67411     H
C88     0.4302   0.3689   0.7154     C
H89    0.41027   0.3369  0.74517     H
C90     0.5694     0.41   0.7156     C
C91      0.592   0.4579   0.6717     C
H92    0.68297  0.48813  0.67163     H
C93     0.4846   0.4618   0.6288     C
H94     0.5039   0.4938  0.59893     H
C95     0.7734   0.3662   0.8541     C
H96    0.75276    0.348  0.89116     H
C97     0.6612   0.3783   0.8143     C
H98    0.56585  0.36997  0.82523     H
C99     0.6897   0.4022   0.7597     C
C100    0.8286   0.4168   0.7457     C
H101   0.84817  0.43328  0.70796     H
C102    0.9411   0.4083   0.7846     C
H103   0.03665  0.42105  0.77439     H
C104    0.9136   0.3808   0.8392     C
C105    0.0224    0.368   0.8802     C
N106     0.171  0.11254  0.48989     N
H107   0.08149  0.08964  0.48437     H
H108   0.22301  0.11866  0.45956     H
N109    0.1531   0.1294   0.5888     N
H110   0.06342  0.10661  0.58414     H
H111   0.19242  0.14651  0.62434     H
N112    0.2329   0.2124   0.1373     N
H113   0.23771  0.19539  0.10089     H
H114   0.15824  0.19623  0.15652     H
N115    0.4478   0.2861   0.1348     N
H116   0.45442  0.26966  0.09841     H
H117   0.51663  0.31919  0.15266     H
N118    0.0809   0.9427   0.7423     N
H119    0.0698  0.98528   0.7529     H
H120   0.08061  0.91149   0.7688     H
N121    0.0987   0.9712   0.6459     N
H122   0.08793  0.01422  0.65501     H
H123   0.11029  0.95822  0.60907     H
N124     0.146   0.4014   0.8859     N
H125   0.17215  0.43625  0.86345     H
H126   0.20856  0.39055  0.91245     H
N127    0.9929   0.3138   0.9193     N
H128   0.90641  0.28754  0.91788     H
O129     0.746   0.3434   0.1793     O
C130      0.32   0.4272   0.0477     C
C131     0.195   0.3939   0.0796     C
C132    0.1466   0.4272   0.1275     C
H133   0.20189  0.47143  0.14306     H
C134    0.0247   0.4007   0.1542     C
H135   0.99367  0.42675  0.18552     H
C136     0.949   0.3342   0.1333     C
C137    0.0043   0.3024   0.0868     C
H138   0.95017  0.25784   0.0716     H
C139     0.125   0.3258   0.0599     C
C140    0.8111   0.3016   0.1545     C
N141    0.1783   0.2895   0.0176     N
H142   0.13389  0.24655  0.00511     H
H143   0.25744  0.30875  0.00247     H
O144    0.7696   0.2365   0.1501     O
O145     0.325   0.4021   0.9949     O
O146     0.387   0.4834   0.0749     O
O147     0.243   0.1709   0.7116     O
C148    0.1777   0.1352   0.7429     C
C149    0.2182   0.1508   0.8079     C
C150    0.1263   0.1211   0.8476     C
H151   0.03604  0.09328  0.83282     H
C152    0.1604   0.1303   0.9069     C
H153   0.09197  0.11018  0.93246     H
C154    0.2951   0.1691   0.9322     C
C155    0.3832   0.2068   0.8902     C
H156    0.4654  0.24115   0.9047     H
C157    0.3494   0.1936   0.8283     C
C158     0.335   0.1783   0.9938     C
N159    0.4583   0.2191    0.799     N
H160   0.45416  0.20947  0.76039     H
H161   0.53564  0.24579  0.81783     H
O162    0.0727   0.0873   0.7246     O
O163    0.4421   0.2235   0.0165     O
O164    0.2731   0.1384     0.03     O
loop_
_geom_bond_atom_site_label_1
_geom_bond_atom_site_label_2
_geom_bond_distance
_geom_bond_site_symmetry_2
_ccdc_geom_bond_type
H8    O9     1.97163       .     S
O9    H8     1.97163       .     S
H17   O18    1.97163       .     S
O18   H17    1.97163       .     S
H20   N141   1.99780   1_556     S
N141  H20    1.99780   1_554     S
H107  O0     1.92418   1_455     S
O0    H107   1.92418   1_655     S
H110  O9     1.89119   1_455     S
O9    H110   1.89119   1_655     S
H111  O147   2.00658       .     S
O147  H111   2.00658       .     S
H113  O164   1.99195       .     S
O164  H113   1.99195       .     S
H116  O163   2.00208       .     S
O163  H116   2.00208       .     S
H117  O129   2.18141       .     S
O129  H117   2.18141       .     S
H119  O162   2.12014   1_565     S
O162  H119   2.12014   1_545     S
H122  O162   2.09959       .     S
O162  H122   2.09959       .     S
H123  O19    1.89405       .     S
O19   H123   1.89405       .     S
H126  O145   2.07681       .     S
O145  H126   2.07681       .     S
H143  O145   1.82935   1_554     S
O145  H143   1.82935   1_556     S
H160  O147   2.19729       .     S
O147  H160   2.19729       .     S
O0    C4     1.27554       .     S
C4    O0     1.27554       .     S
C1    H2     0.95058       .     S
H2    C1     0.95058       .     S
C1    C3     1.38269       .     S
C3    C1     1.38269       .     S
C1    C14    1.40301   1_545     S
C14   C1     1.40301   1_565     S
C3    C4     1.50181       .     S
C4    C3     1.50181       .     S
C3    C5     1.42810       .     S
C5    C3     1.42810       .     S
C4    O9     1.23131       .     S
O9    C4     1.23131       .     S
C5    N6     1.37643       .     S
N6    C5     1.37643       .     S
C5    C10    1.40301   1_545     S
C10   C5     1.40301   1_565     S
N6    H7     0.87975       .     S
H7    N6     0.87975       .     S
N6    H8     0.88042       .     S
H8    N6     0.88042       .     S
C10   H11    0.95058       .     S
H11   C10    0.95058       .     S
C10   C12    1.38269       .     S
C12   C10    1.38269       .     S
C12   C13    1.50181       .     S
C13   C12    1.50181       .     S
C12   C14    1.42810       .     S
C14   C12    1.42810       .     S
C13   O18    1.23131       .     S
O18   C13    1.23131       .     S
C13   O19    1.27554       .     S
O19   C13    1.27554       .     S
C14   N15    1.37643       .     S
N15   C14    1.37643       .     S
N15   H16    0.87975       .     S
H16   N15    0.87975       .     S
N15   H17    0.88042       .     S
H17   N15    0.88042       .     S
H20   N127   0.88013   1_455     S
N127  H20    0.88013   1_655     S
C21   C22    1.56119       .     S
C22   C21    1.56119       .     S
C21   C43    1.54365       .     S
C43   C21    1.54365       .     S
C21   C64    1.53983       .     S
C64   C21    1.53983       .     S
C21   C85    1.54028       .     S
C85   C21    1.54028       .     S
C22   C23    1.38334   1_455     S
C23   C22    1.38334   1_655     S
C22   C30    1.39809       .     S
C30   C22    1.39809       .     S
C23   H24    0.94959       .     S
H24   C23    0.94959       .     S
C23   C25    1.38355       .     S
C25   C23    1.38355       .     S
C25   H26    0.95000       .     S
H26   C25    0.95000       .     S
C25   C27    1.38033       .     S
C27   C25    1.38033       .     S
C27   C28    1.40749       .     S
C28   C27    1.40749       .     S
C27   C36    1.48024       .     S
C36   C27    1.48024       .     S
C28   H29    0.94995       .     S
H29   C28    0.94995       .     S
C28   C30    1.38637   1_655     S
C30   C28    1.38637   1_455     S
C30   H31    0.94973       .     S
H31   C30    0.94973       .     S
C32   H33    0.94941       .     S
H33   C32    0.94941       .     S
C32   C34    1.38357       .     S
C34   C32    1.38357       .     S
C32   C41    1.39757       .     S
C41   C32    1.39757       .     S
C34   H35    0.95041       .     S
H35   C34    0.95041       .     S
C34   C36    1.38785       .     S
C36   C34    1.38785       .     S
C36   C37    1.38509       .     S
C37   C36    1.38509       .     S
C37   H38    0.94962       .     S
H38   C37    0.94962       .     S
C37   C39    1.38199       .     S
C39   C37    1.38199       .     S
C39   H40    0.95010       .     S
H40   C39    0.95010       .     S
C39   C41    1.40704       .     S
C41   C39    1.40704       .     S
C41   C42    1.48855       .     S
C42   C41    1.48855       .     S
C42   N106   1.31566       .     S
N106  C42    1.31566       .     S
C42   N109   1.29215       .     S
N109  C42    1.29215       .     S
C43   C44    1.39705       .     S
C44   C43    1.39705       .     S
C43   C51    1.40290       .     S
C51   C43    1.40290       .     S
C44   H45    0.95074       .     S
H45   C44    0.95074       .     S
C44   C46    1.38074       .     S
C46   C44    1.38074       .     S
C46   H47    0.95045       .     S
H47   C46    0.95045       .     S
C46   C48    1.38719       .     S
C48   C46    1.38719       .     S
C48   C49    1.40270       .     S
C49   C48    1.40270       .     S
C48   C57    1.50030       .     S
C57   C48    1.50030       .     S
C49   H50    0.94983       .     S
H50   C49    0.94983       .     S
C49   C51    1.40175       .     S
C51   C49    1.40175       .     S
C51   H52    0.95017       .     S
H52   C51    0.95017       .     S
C53   H54    0.95064       .     S
H54   C53    0.95064       .     S
C53   C55    1.39017       .     S
C55   C53    1.39017       .     S
C53   C62    1.38033       .     S
C62   C53    1.38033       .     S
C55   H56    0.95071       .     S
H56   C55    0.95071       .     S
C55   C57    1.39396       .     S
C57   C55    1.39396       .     S
C57   C58    1.39847       .     S
C58   C57    1.39847       .     S
C58   H59    0.94993       .     S
H59   C58    0.94993       .     S
C58   C60    1.36746       .     S
C60   C58    1.36746       .     S
C60   H61    0.95037       .     S
H61   C60    0.95037       .     S
C60   C62    1.40759       .     S
C62   C60    1.40759       .     S
C62   C63    1.48446       .     S
C63   C62    1.48446       .     S
C63   N118   1.29603       .     S
N118  C63    1.29603       .     S
C63   N121   1.32427       .     S
N121  C63    1.32427       .     S
C64   C65    1.39608       .     S
C65   C64    1.39608       .     S
C64   C72    1.38655       .     S
C72   C64    1.38655       .     S
C65   H66    0.94902       .     S
H66   C65    0.94902       .     S
C65   C67    1.38370       .     S
C67   C65    1.38370       .     S
C67   H68    0.94970       .     S
H68   C67    0.94970       .     S
C67   C69    1.39623       .     S
C69   C67    1.39623       .     S
C69   C70    1.40537       .     S
C70   C69    1.40537       .     S
C69   C78    1.51818       .     S
C78   C69    1.51818       .     S
C70   H71    0.95009       .     S
H71   C70    0.95009       .     S
C70   C72    1.36335       .     S
C72   C70    1.36335       .     S
C72   H73    0.95052       .     S
H73   C72    0.95052       .     S
C74   H75    0.95017       .     S
H75   C74    0.95017       .     S
C74   C76    1.38360       .     S
C76   C74    1.38360       .     S
C74   C83    1.40853       .     S
C83   C74    1.40853       .     S
C76   H77    0.95062       .     S
H77   C76    0.95062       .     S
C76   C78    1.32968       .     S
C78   C76    1.32968       .     S
C78   C79    1.42753       .     S
C79   C78    1.42753       .     S
C79   H80    0.95019       .     S
H80   C79    0.95019       .     S
C79   C81    1.33442       .     S
C81   C79    1.33442       .     S
C81   H82    0.94950       .     S
H82   C81    0.94950       .     S
C81   C83    1.42005       .     S
C83   C81    1.42005       .     S
C83   C84    1.45592       .     S
C84   C83    1.45592       .     S
C84   N112   1.29369       .     S
N112  C84    1.29369       .     S
C84   N115   1.31147       .     S
N115  C84    1.31147       .     S
C85   C86    1.38940       .     S
C86   C85    1.38940       .     S
C85   C93    1.39762       .     S
C93   C85    1.39762       .     S
C86   H87    0.94951       .     S
H87   C86    0.94951       .     S
C86   C88    1.38104       .     S
C88   C86    1.38104       .     S
C88   H89    0.94940       .     S
H89   C88    0.94940       .     S
C88   C90    1.41165       .     S
C90   C88    1.41165       .     S
C90   C91    1.40265       .     S
C91   C90    1.40265       .     S
C90   C99    1.50179       .     S
C99   C90    1.50179       .     S
C91   H92    0.94994       .     S
H92   C91    0.94994       .     S
C91   C93    1.37533       .     S
C93   C91    1.37533       .     S
C93   H94    0.95039       .     S
H94   C93    0.95039       .     S
C95   H96    0.94994       .     S
H96   C95    0.94994       .     S
C95   C97    1.41295       .     S
C97   C95    1.41295       .     S
C95   C104   1.38822       .     S
C104  C95    1.38822       .     S
C97   H98    0.94991       .     S
H98   C97    0.94991       .     S
C97   C99    1.37504       .     S
C99   C97    1.37504       .     S
C99   C100   1.36980       .     S
C100  C99    1.36980       .     S
C100  H101   0.94992       .     S
H101  C100   0.94992       .     S
C100  C102   1.37977       .     S
C102  C100   1.37977       .     S
C102  H103   0.94954   1_655     S
H103  C102   0.94954   1_455     S
C102  C104   1.39938       .     S
C104  C102   1.39938       .     S
C104  C105   1.41028   1_655     S
C105  C104   1.41028   1_455     S
C105  N124   1.22540       .     S
N124  C105   1.22540       .     S
C105  N127   1.41713   1_455     S
N127  C105   1.41713   1_655     S
N106  H107   0.87997       .     S
H107  N106   0.87997       .     S
N106  H108   0.87992       .     S
H108  N106   0.87992       .     S
N109  H110   0.88021       .     S
H110  N109   0.88021       .     S
N109  H111   0.88006       .     S
H111  N109   0.88006       .     S
N112  H113   0.88023       .     S
H113  N112   0.88023       .     S
N112  H114   0.88030       .     S
H114  N112   0.88030       .     S
N115  H116   0.87977       .     S
H116  N115   0.87977       .     S
N115  H117   0.88003       .     S
H117  N115   0.88003       .     S
N118  H119   0.88058       .     S
H119  N118   0.88058       .     S
N118  H120   0.87859       .     S
H120  N118   0.87859       .     S
N121  H122   0.88067   1_565     S
H122  N121   0.88067   1_545     S
N121  H123   0.88062       .     S
H123  N121   0.88062       .     S
N124  H125   0.88017       .     S
H125  N124   0.88017       .     S
N124  H126   0.87974       .     S
H126  N124   0.87974       .     S
N127  H128   0.88002       .     S
H128  N127   0.88002       .     S
O129  C140   1.25497       .     S
C140  O129   1.25497       .     S
C130  C131   1.50216       .     S
C131  C130   1.50216       .     S
C130  O145   1.27564   1_554     S
O145  C130   1.27564   1_556     S
C130  O146   1.25527       .     S
O146  C130   1.25527       .     S
C131  C132   1.39115       .     S
C132  C131   1.39115       .     S
C131  C139   1.39471       .     S
C139  C131   1.39471       .     S
C132  H133   0.95068       .     S
H133  C132   0.95068       .     S
C132  C134   1.37905       .     S
C134  C132   1.37905       .     S
C134  H135   0.95038   1_455     S
H135  C134   0.95038   1_655     S
C134  C136   1.39117   1_455     S
C136  C134   1.39117   1_655     S
C136  C137   1.38605   1_655     S
C137  C136   1.38605   1_455     S
C136  C140   1.47599       .     S
C140  C136   1.47599       .     S
C137  H138   0.94969   1_455     S
H138  C137   0.94969   1_655     S
C137  C139   1.35932       .     S
C139  C137   1.35932       .     S
C139  N141   1.35115       .     S
N141  C139   1.35115       .     S
C140  O144   1.24852       .     S
O144  C140   1.24852       .     S
N141  H142   0.88064       .     S
H142  N141   0.88064       .     S
N141  H143   0.88026       .     S
H143  N141   0.88026       .     S
O147  C148   1.15367       .     S
C148  O147   1.15367       .     S
C148  C149   1.49242       .     S
C149  C148   1.49242       .     S
C148  O162   1.25428       .     S
O162  C148   1.25428       .     S
C149  C150   1.37829       .     S
C150  C149   1.37829       .     S
C149  C157   1.39188       .     S
C157  C149   1.39188       .     S
C150  H151   0.94935       .     S
H151  C150   0.94935       .     S
C150  C152   1.35155       .     S
C152  C150   1.35155       .     S
C152  H153   0.94963       .     S
H153  C152   0.94963       .     S
C152  C154   1.41851       .     S
C154  C152   1.41851       .     S
C154  C155   1.45480       .     S
C155  C154   1.45480       .     S
C154  C158   1.41034       .     S
C158  C154   1.41034       .     S
C155  H156   0.94940       .     S
H156  C155   0.94940       .     S
C155  C157   1.41250       .     S
C157  C155   1.41250       .     S
C157  N159   1.30965       .     S
N159  C157   1.30965       .     S
C158  O163   1.26506   1_556     S
O163  C158   1.26506   1_554     S
C158  O164   1.26280   1_556     S
O164  C158   1.26280   1_554     S
N159  H160   0.88096       .     S
H160  N159   0.88096       .     S
N159  H161   0.87963       .     S
H161  N159   0.87963       .     S
O9    H8     1.97163       .     S
H8    O9     1.97163       .     S
O18   H17    1.97163       .     S
H17   O18    1.97163       .     S
N141  H20    1.99780   1_554     S
H20   N141   1.99780   1_556     S
O0    H107   1.92418   1_655     S
H107  O0     1.92418   1_455     S
O9    H110   1.89119   1_655     S
H110  O9     1.89119   1_455     S
O147  H111   2.00658       .     S
H111  O147   2.00658       .     S
O164  H113   1.99195       .     S
H113  O164   1.99195       .     S
O163  H116   2.00208       .     S
H116  O163   2.00208       .     S
O129  H117   2.18141       .     S
H117  O129   2.18141       .     S
O162  H119   2.12014   1_545     S
H119  O162   2.12014   1_565     S
O162  H122   2.09959       .     S
H122  O162   2.09959       .     S
O19   H123   1.89405       .     S
H123  O19    1.89405       .     S
O145  H126   2.07681       .     S
H126  O145   2.07681       .     S
O145  H143   1.82935   1_556     S
H143  O145   1.82935   1_554     S
O147  H160   2.19729       .     S
H160  O147   2.19729       .     S
C4    O0     1.27554       .     S
O0    C4     1.27554       .     S
H2    C1     0.95058       .     S
C1    H2     0.95058       .     S
C3    C1     1.38269       .     S
C1    C3     1.38269       .     S
C14   C1     1.40301   1_565     S
C1    C14    1.40301   1_545     S
C4    C3     1.50181       .     S
C3    C4     1.50181       .     S
C5    C3     1.42810       .     S
C3    C5     1.42810       .     S
O9    C4     1.23131       .     S
C4    O9     1.23131       .     S
N6    C5     1.37643       .     S
C5    N6     1.37643       .     S
C10   C5     1.40301   1_565     S
C5    C10    1.40301   1_545     S
H7    N6     0.87975       .     S
N6    H7     0.87975       .     S
H8    N6     0.88042       .     S
N6    H8     0.88042       .     S
H11   C10    0.95058       .     S
C10   H11    0.95058       .     S
C12   C10    1.38269       .     S
C10   C12    1.38269       .     S
C13   C12    1.50181       .     S
C12   C13    1.50181       .     S
C14   C12    1.42810       .     S
C12   C14    1.42810       .     S
O18   C13    1.23131       .     S
C13   O18    1.23131       .     S
O19   C13    1.27554       .     S
C13   O19    1.27554       .     S
N15   C14    1.37643       .     S
C14   N15    1.37643       .     S
H16   N15    0.87975       .     S
N15   H16    0.87975       .     S
H17   N15    0.88042       .     S
N15   H17    0.88042       .     S
N127  H20    0.88013   1_655     S
H20   N127   0.88013   1_455     S
C22   C21    1.56119       .     S
C21   C22    1.56119       .     S
C43   C21    1.54365       .     S
C21   C43    1.54365       .     S
C64   C21    1.53983       .     S
C21   C64    1.53983       .     S
C85   C21    1.54028       .     S
C21   C85    1.54028       .     S
C23   C22    1.38334   1_655     S
C22   C23    1.38334   1_455     S
C30   C22    1.39809       .     S
C22   C30    1.39809       .     S
H24   C23    0.94959       .     S
C23   H24    0.94959       .     S
C25   C23    1.38355       .     S
C23   C25    1.38355       .     S
H26   C25    0.95000       .     S
C25   H26    0.95000       .     S
C27   C25    1.38033       .     S
C25   C27    1.38033       .     S
C28   C27    1.40749       .     S
C27   C28    1.40749       .     S
C36   C27    1.48024       .     S
C27   C36    1.48024       .     S
H29   C28    0.94995       .     S
C28   H29    0.94995       .     S
C30   C28    1.38637   1_455     S
C28   C30    1.38637   1_655     S
H31   C30    0.94973       .     S
C30   H31    0.94973       .     S
H33   C32    0.94941       .     S
C32   H33    0.94941       .     S
C34   C32    1.38357       .     S
C32   C34    1.38357       .     S
C41   C32    1.39757       .     S
C32   C41    1.39757       .     S
H35   C34    0.95041       .     S
C34   H35    0.95041       .     S
C36   C34    1.38785       .     S
C34   C36    1.38785       .     S
C37   C36    1.38509       .     S
C36   C37    1.38509       .     S
H38   C37    0.94962       .     S
C37   H38    0.94962       .     S
C39   C37    1.38199       .     S
C37   C39    1.38199       .     S
H40   C39    0.95010       .     S
C39   H40    0.95010       .     S
C41   C39    1.40704       .     S
C39   C41    1.40704       .     S
C42   C41    1.48855       .     S
C41   C42    1.48855       .     S
N106  C42    1.31566       .     S
C42   N106   1.31566       .     S
N109  C42    1.29215       .     S
C42   N109   1.29215       .     S
C44   C43    1.39705       .     S
C43   C44    1.39705       .     S
C51   C43    1.40290       .     S
C43   C51    1.40290       .     S
H45   C44    0.95074       .     S
C44   H45    0.95074       .     S
C46   C44    1.38074       .     S
C44   C46    1.38074       .     S
H47   C46    0.95045       .     S
C46   H47    0.95045       .     S
C48   C46    1.38719       .     S
C46   C48    1.38719       .     S
C49   C48    1.40270       .     S
C48   C49    1.40270       .     S
C57   C48    1.50030       .     S
C48   C57    1.50030       .     S
H50   C49    0.94983       .     S
C49   H50    0.94983       .     S
C51   C49    1.40175       .     S
C49   C51    1.40175       .     S
H52   C51    0.95017       .     S
C51   H52    0.95017       .     S
H54   C53    0.95064       .     S
C53   H54    0.95064       .     S
C55   C53    1.39017       .     S
C53   C55    1.39017       .     S
C62   C53    1.38033       .     S
C53   C62    1.38033       .     S
H56   C55    0.95071       .     S
C55   H56    0.95071       .     S
C57   C55    1.39396       .     S
C55   C57    1.39396       .     S
C58   C57    1.39847       .     S
C57   C58    1.39847       .     S
H59   C58    0.94993       .     S
C58   H59    0.94993       .     S
C60   C58    1.36746       .     S
C58   C60    1.36746       .     S
H61   C60    0.95037       .     S
C60   H61    0.95037       .     S
C62   C60    1.40759       .     S
C60   C62    1.40759       .     S
C63   C62    1.48446       .     S
C62   C63    1.48446       .     S
N118  C63    1.29603       .     S
C63   N118   1.29603       .     S
N121  C63    1.32427       .     S
C63   N121   1.32427       .     S
C65   C64    1.39608       .     S
C64   C65    1.39608       .     S
C72   C64    1.38655       .     S
C64   C72    1.38655       .     S
H66   C65    0.94902       .     S
C65   H66    0.94902       .     S
C67   C65    1.38370       .     S
C65   C67    1.38370       .     S
H68   C67    0.94970       .     S
C67   H68    0.94970       .     S
C69   C67    1.39623       .     S
C67   C69    1.39623       .     S
C70   C69    1.40537       .     S
C69   C70    1.40537       .     S
C78   C69    1.51818       .     S
C69   C78    1.51818       .     S
H71   C70    0.95009       .     S
C70   H71    0.95009       .     S
C72   C70    1.36335       .     S
C70   C72    1.36335       .     S
H73   C72    0.95052       .     S
C72   H73    0.95052       .     S
H75   C74    0.95017       .     S
C74   H75    0.95017       .     S
C76   C74    1.38360       .     S
C74   C76    1.38360       .     S
C83   C74    1.40853       .     S
C74   C83    1.40853       .     S
H77   C76    0.95062       .     S
C76   H77    0.95062       .     S
C78   C76    1.32968       .     S
C76   C78    1.32968       .     S
C79   C78    1.42753       .     S
C78   C79    1.42753       .     S
H80   C79    0.95019       .     S
C79   H80    0.95019       .     S
C81   C79    1.33442       .     S
C79   C81    1.33442       .     S
H82   C81    0.94950       .     S
C81   H82    0.94950       .     S
C83   C81    1.42005       .     S
C81   C83    1.42005       .     S
C84   C83    1.45592       .     S
C83   C84    1.45592       .     S
N112  C84    1.29369       .     S
C84   N112   1.29369       .     S
N115  C84    1.31147       .     S
C84   N115   1.31147       .     S
C86   C85    1.38940       .     S
C85   C86    1.38940       .     S
C93   C85    1.39762       .     S
C85   C93    1.39762       .     S
H87   C86    0.94951       .     S
C86   H87    0.94951       .     S
C88   C86    1.38104       .     S
C86   C88    1.38104       .     S
H89   C88    0.94940       .     S
C88   H89    0.94940       .     S
C90   C88    1.41165       .     S
C88   C90    1.41165       .     S
C91   C90    1.40265       .     S
C90   C91    1.40265       .     S
C99   C90    1.50179       .     S
C90   C99    1.50179       .     S
H92   C91    0.94994       .     S
C91   H92    0.94994       .     S
C93   C91    1.37533       .     S
C91   C93    1.37533       .     S
H94   C93    0.95039       .     S
C93   H94    0.95039       .     S
H96   C95    0.94994       .     S
C95   H96    0.94994       .     S
C97   C95    1.41295       .     S
C95   C97    1.41295       .     S
C104  C95    1.38822       .     S
C95   C104   1.38822       .     S
H98   C97    0.94991       .     S
C97   H98    0.94991       .     S
C99   C97    1.37504       .     S
C97   C99    1.37504       .     S
C100  C99    1.36980       .     S
C99   C100   1.36980       .     S
H101  C100   0.94992       .     S
C100  H101   0.94992       .     S
C102  C100   1.37977       .     S
C100  C102   1.37977       .     S
H103  C102   0.94954   1_455     S
C102  H103   0.94954   1_655     S
C104  C102   1.39938       .     S
C102  C104   1.39938       .     S
C105  C104   1.41028   1_455     S
C104  C105   1.41028   1_655     S
N124  C105   1.22540       .     S
C105  N124   1.22540       .     S
N127  C105   1.41713   1_655     S
C105  N127   1.41713   1_455     S
H107  N106   0.87997       .     S
N106  H107   0.87997       .     S
H108  N106   0.87992       .     S
N106  H108   0.87992       .     S
H110  N109   0.88021       .     S
N109  H110   0.88021       .     S
H111  N109   0.88006       .     S
N109  H111   0.88006       .     S
H113  N112   0.88023       .     S
N112  H113   0.88023       .     S
H114  N112   0.88030       .     S
N112  H114   0.88030       .     S
H116  N115   0.87977       .     S
N115  H116   0.87977       .     S
H117  N115   0.88003       .     S
N115  H117   0.88003       .     S
H119  N118   0.88058       .     S
N118  H119   0.88058       .     S
H120  N118   0.87859       .     S
N118  H120   0.87859       .     S
H122  N121   0.88067   1_545     S
N121  H122   0.88067   1_565     S
H123  N121   0.88062       .     S
N121  H123   0.88062       .     S
H125  N124   0.88017       .     S
N124  H125   0.88017       .     S
H126  N124   0.87974       .     S
N124  H126   0.87974       .     S
H128  N127   0.88002       .     S
N127  H128   0.88002       .     S
C140  O129   1.25497       .     S
O129  C140   1.25497       .     S
C131  C130   1.50216       .     S
C130  C131   1.50216       .     S
O145  C130   1.27564   1_556     S
C130  O145   1.27564   1_554     S
O146  C130   1.25527       .     S
C130  O146   1.25527       .     S
C132  C131   1.39115       .     S
C131  C132   1.39115       .     S
C139  C131   1.39471       .     S
C131  C139   1.39471       .     S
H133  C132   0.95068       .     S
C132  H133   0.95068       .     S
C134  C132   1.37905       .     S
C132  C134   1.37905       .     S
H135  C134   0.95038   1_655     S
C134  H135   0.95038   1_455     S
C136  C134   1.39117   1_655     S
C134  C136   1.39117   1_455     S
C137  C136   1.38605   1_455     S
C136  C137   1.38605   1_655     S
C140  C136   1.47599       .     S
C136  C140   1.47599       .     S
H138  C137   0.94969   1_655     S
C137  H138   0.94969   1_455     S
C139  C137   1.35932       .     S
C137  C139   1.35932       .     S
N141  C139   1.35115       .     S
C139  N141   1.35115       .     S
O144  C140   1.24852       .     S
C140  O144   1.24852       .     S
H142  N141   0.88064       .     S
N141  H142   0.88064       .     S
H143  N141   0.88026       .     S
N141  H143   0.88026       .     S
C148  O147   1.15367       .     S
O147  C148   1.15367       .     S
C149  C148   1.49242       .     S
C148  C149   1.49242       .     S
O162  C148   1.25428       .     S
C148  O162   1.25428       .     S
C150  C149   1.37829       .     S
C149  C150   1.37829       .     S
C157  C149   1.39188       .     S
C149  C157   1.39188       .     S
H151  C150   0.94935       .     S
C150  H151   0.94935       .     S
C152  C150   1.35155       .     S
C150  C152   1.35155       .     S
H153  C152   0.94963       .     S
C152  H153   0.94963       .     S
C154  C152   1.41851       .     S
C152  C154   1.41851       .     S
C155  C154   1.45480       .     S
C154  C155   1.45480       .     S
C158  C154   1.41034       .     S
C154  C158   1.41034       .     S
H156  C155   0.94940       .     S
C155  H156   0.94940       .     S
C157  C155   1.41250       .     S
C155  C157   1.41250       .     S
N159  C157   1.30965       .     S
C157  N159   1.30965       .     S
O163  C158   1.26506   1_554     S
C158  O163   1.26506   1_556     S
O164  C158   1.26280   1_554     S
C158  O164   1.26280   1_556     S
H160  N159   0.88096       .     S
N159  H160   0.88096       .     S
H161  N159   0.87963       .     S
N159  H161   0.87963       .     S
