data_I
_chemical_name_common  '/data/user2/wty/HOF/MOFDiff/mofdiff/data/test/293-cphenyl'
_cell_length_a 14.45590
_cell_length_b 14.45590
_cell_length_c  7.81520
_cell_angle_alpha 90.00000
_cell_angle_beta  90.00000
_cell_angle_gamma 90.00000
_space_group_name_H-M_alt      'P 1'


loop_
_space_group_symop_operation_xyz
  'x, y, z' 

loop_
_atom_site_label
_atom_site_fract_x
_atom_site_fract_y
_atom_site_fract_z
_atom_site_type_symbol
H0      0.8098   0.0883   0.7516     H
O1      0.7603  0.11547   0.7827     O
H2      0.7112   0.0863   0.8068     H
H3       0.729    0.354    0.875     H
O4      0.7397  0.38453   0.7827     O
H5      0.7888   0.4137   0.8068     H
H6      0.6902   0.4117   0.7516     H
H7       0.755    0.348    0.702     H
O8        0.75     0.25   0.5328     O
H9      0.7468   0.2914   0.6095     H
H10      0.709    0.243    0.457     H
H11     0.7532   0.2086   0.6095     H
loop_
_geom_bond_atom_site_label_1
_geom_bond_atom_site_label_2
_geom_bond_distance
_geom_bond_site_symmetry_2
_ccdc_geom_bond_type
H7    O8     1.93927       .     S
O8    H7     1.93927       .     S
H9    O4     1.91186       .     S
O4    H9     1.91186       .     S
H11   O1     1.91186       .     S
O1    H11    1.91186       .     S
H0    O1     0.85169       .     S
O1    H0     0.85169       .     S
O1    H2     0.84681       .     S
H2    O1     0.84681       .     S
H3    O4     0.85967       .     S
O4    H3     0.85967       .     S
O4    H5     0.84681       .     S
H5    O4     0.84681       .     S
O4    H6     0.85169       .     S
H6    O4     0.85169       .     S
O4    H7     0.85179       .     S
H7    O4     0.85179       .     S
O8    H9     0.84831       .     S
H9    O8     0.84831       .     S
O8    H10    0.84407       .     S
H10   O8     0.84407       .     S
O8    H11    0.84831       .     S
H11   O8     0.84831       .     S
O8    H7     1.93927       .     S
H7    O8     1.93927       .     S
O4    H9     1.91186       .     S
H9    O4     1.91186       .     S
O1    H11    1.91186       .     S
H11   O1     1.91186       .     S
O1    H0     0.85169       .     S
H0    O1     0.85169       .     S
H2    O1     0.84681       .     S
O1    H2     0.84681       .     S
O4    H3     0.85967       .     S
H3    O4     0.85967       .     S
H5    O4     0.84681       .     S
O4    H5     0.84681       .     S
H6    O4     0.85169       .     S
O4    H6     0.85169       .     S
H7    O4     0.85179       .     S
O4    H7     0.85179       .     S
H9    O8     0.84831       .     S
O8    H9     0.84831       .     S
H10   O8     0.84407       .     S
O8    H10    0.84407       .     S
H11   O8     0.84831       .     S
O8    H11    0.84831       .     S
