data_I
_chemical_name_common  '/data/user2/wty/HOF/MOFDiff/mofdiff/data/test/293-banth'
_cell_length_a 19.81100
_cell_length_b 19.81100
_cell_length_c 44.76500
_cell_angle_alpha 90.00000
_cell_angle_beta  90.00000
_cell_angle_gamma 90.00000
_space_group_name_H-M_alt      'P 1'


loop_
_space_group_symop_operation_xyz
  'x, y, z' 

loop_
_atom_site_label
_atom_site_fract_x
_atom_site_fract_y
_atom_site_fract_z
_atom_site_type_symbol
N0      0.4462   0.3125   0.5064     N
N1      0.4422   0.4229   0.4976     N
C2       0.414   0.3641   0.4942     C
C3      0.3503   0.3543   0.4799     C
C4       0.333   0.2888   0.4707     C
C5      0.2741    0.277   0.4544     C
C6      0.2323    0.331    0.446     C
C7       0.251   0.3975   0.4537     C
C8      0.3111   0.4088   0.4694     C
C9      0.1711   0.3157    0.429     C
C10      0.135   0.2568   0.4355     C
C11     0.0807   0.2374   0.4179     C
C12     0.0575   0.2776   0.3949     C
C13     0.0878   0.3407   0.3908     C
C14     0.1457   0.3583   0.4069     C
C15        0.0     0.25    0.375     C
H16      0.361   0.2519   0.4761     H
H17     0.2627   0.2325   0.4484     H
H18     0.2225   0.4344   0.4487     H
H19     0.3252   0.4537   0.4735     H
H20     0.1482     0.23   0.4521     H
H21     0.0596   0.1951   0.4216     H
H22     0.0718   0.3693   0.3753     H
H23     0.1659   0.4012   0.4036     H
H24     0.4819   0.4273   0.5073     H
H25     0.4219   0.4594   0.4898     H
H26     0.4857    0.319   0.5158     H
H27     0.4285   0.2708   0.5051     H
N28     0.0625   0.8038   0.2436     N
N29     0.1729   0.8078   0.2524     N
C30     0.1141    0.836   0.2558     C
C31     0.1043   0.8997   0.2701     C
C32     0.0388    0.917   0.2793     C
C33      0.027   0.9759   0.2956     C
C34      0.081   0.0177    0.304     C
C35     0.1475    0.999   0.2963     C
C36     0.1588   0.9389   0.2806     C
C37     0.0657   0.0789    0.321     C
C38     0.0068    0.115   0.3145     C
C39     0.9874   0.1693   0.3321     C
C40     0.0276   0.1925   0.3551     C
C41     0.0907   0.1622   0.3592     C
C42     0.1083   0.1043   0.3431     C
H43     0.0019    0.889   0.2739     H
H44     0.9825   0.9873   0.3016     H
H45     0.1844   0.0275   0.3013     H
H46     0.2037   0.9248   0.2765     H
H47       0.98   0.1018   0.2979     H
H48     0.9451   0.1904   0.3284     H
H49     0.1193   0.1782   0.3747     H
H50     0.1512   0.0841   0.3464     H
H51     0.1773   0.7681   0.2427     H
H52     0.2094   0.8281   0.2602     H
H53      0.069   0.7643   0.2342     H
H54     0.0208   0.8215   0.2449     H
N55     0.5538   0.1875   0.5064     N
N56     0.5578   0.0771   0.4976     N
C57      0.586   0.1359   0.4942     C
C58     0.6497   0.1457   0.4799     C
C59      0.667   0.2112   0.4707     C
C60     0.7259    0.223   0.4544     C
C61     0.7677    0.169    0.446     C
C62      0.749   0.1025   0.4537     C
C63     0.6889   0.0912   0.4694     C
C64     0.8289   0.1843    0.429     C
C65      0.865   0.2432   0.4355     C
C66     0.9193   0.2626   0.4179     C
C67     0.9425   0.2224   0.3949     C
C68     0.9122   0.1593   0.3908     C
C69     0.8543   0.1417   0.4069     C
H70      0.639   0.2481   0.4761     H
H71     0.7373   0.2675   0.4484     H
H72     0.7775   0.0656   0.4487     H
H73     0.6748   0.0463   0.4735     H
H74     0.8518     0.27   0.4521     H
H75     0.9404   0.3049   0.4216     H
H76     0.9282   0.1307   0.3753     H
H77     0.8341   0.0988   0.4036     H
H78     0.5181   0.0727   0.5073     H
H79     0.5781   0.0406   0.4898     H
H80     0.5143    0.181   0.5158     H
H81     0.5715   0.2292   0.5051     H
N82     0.9375   0.6962   0.2436     N
N83     0.8271   0.6922   0.2524     N
C84     0.8859    0.664   0.2558     C
C85     0.8957   0.6003   0.2701     C
C86     0.9612    0.583   0.2793     C
C87      0.973   0.5241   0.2956     C
C88      0.919   0.4823    0.304     C
C89     0.8525    0.501   0.2963     C
C90     0.8412   0.5611   0.2806     C
C91     0.9343   0.4211    0.321     C
C92     0.9932    0.385   0.3145     C
C93     0.0126   0.3307   0.3321     C
C94     0.9724   0.3075   0.3551     C
C95     0.9093   0.3378   0.3592     C
C96     0.8917   0.3957   0.3431     C
H97     0.9981    0.611   0.2739     H
H98     0.0175   0.5127   0.3016     H
H99     0.8156   0.4725   0.3013     H
H100    0.7963   0.5752   0.2765     H
H101      0.02   0.3982   0.2979     H
H102    0.0549   0.3096   0.3284     H
H103    0.8807   0.3218   0.3747     H
H104    0.8488   0.4159   0.3464     H
H105    0.8227   0.7319   0.2427     H
H106    0.7906   0.6719   0.2602     H
H107     0.931   0.7357   0.2342     H
H108    0.9792   0.6785   0.2449     H
O109    0.4254   0.5553  0.47875     O
O110     0.418    0.665  0.48881     O
C111    0.3919   0.6067   0.4865     C
C112    0.3188    0.599   0.4933     C
C113    0.2717   0.5954  0.46952     C
C114    0.2929   0.5911   0.4397     C
C115    0.2452   0.5904  0.41647     C
C116    0.1759   0.5918   0.4231     C
C117    0.1542   0.5954   0.4528     C
C118    0.2019   0.5964  0.47612     C
H119    0.3396   0.5889    0.435     H
H120    0.2594   0.5863   0.3963     H
H121    0.1436   0.5938   0.4074     H
H122    0.1074   0.5948   0.4574     H
O123    0.0746   0.5553  0.52125     O
O124     0.082    0.665  0.51119     O
C125    0.1081   0.6067   0.5135     C
C126    0.1812    0.599   0.5067     C
C127    0.2283   0.5954  0.53048     C
C128    0.2071   0.5911   0.5603     C
C129    0.2548   0.5904  0.58353     C
C130    0.3241   0.5918   0.5769     C
C131    0.3458   0.5954   0.5472     C
C132    0.2981   0.5964  0.52388     C
H133    0.1604   0.5889    0.565     H
H134    0.2406   0.5863   0.6037     H
H135    0.3564   0.5938   0.5926     H
H136    0.3926   0.5948   0.5426     H
loop_
_geom_bond_atom_site_label_1
_geom_bond_atom_site_label_2
_geom_bond_distance
_geom_bond_site_symmetry_2
_ccdc_geom_bond_type
H25   O109   1.96444       .     S
O109  H25    1.96444       .     S
N0    C2     1.32295       .     S
C2    N0     1.32295       .     S
N0    H26    0.89778       .     S
H26   N0     0.89778       .     S
N0    H27    0.89934       .     S
H27   N0     0.89934       .     S
N1    C2     1.30086       .     S
C2    N1     1.30086       .     S
N1    H24    0.90262       .     S
H24   N1     0.90262       .     S
N1    H25    0.89807       .     S
H25   N1     0.89807       .     S
C2    C3     1.42829       .     S
C3    C2     1.42829       .     S
C3    C4     1.40389       .     S
C4    C3     1.40389       .     S
C3    C8     1.41060       .     S
C8    C3     1.41060       .     S
C4    C5     1.39594       .     S
C5    C4     1.39594       .     S
C4    H16    0.94896       .     S
H16   C4     0.94896       .     S
C5    C6     1.40414       .     S
C6    C5     1.40414       .     S
C5    H17    0.94887       .     S
H17   C5     0.94887       .     S
C6    C7     1.41127       .     S
C7    C6     1.41127       .     S
C6    C9     1.46322       .     S
C9    C6     1.46322       .     S
C7    C8     1.40060       .     S
C8    C7     1.40060       .     S
C7    H18    0.95041       .     S
H18   C7     0.95041       .     S
C8    H19    0.95024       .     S
H19   C8     0.95024       .     S
C9    C10    1.39919       .     S
C10   C9     1.39919       .     S
C9    C14    1.39434       .     S
C14   C9     1.39434       .     S
C10   C11    1.38768       .     S
C11   C10    1.38768       .     S
C10   H20    0.94999       .     S
H20   C10    0.94999       .     S
C11   C12    1.38042       .     S
C12   C11    1.38042       .     S
C11   H21    0.95101       .     S
H21   C11    0.95101       .     S
C12   C13    1.39882       .     S
C13   C12    1.39882       .     S
C12   C15    1.54601       .     S
C15   C12    1.54601       .     S
C13   C14    1.39884       .     S
C14   C13    1.39884       .     S
C13   H22    0.95023       .     S
H22   C13    0.95023       .     S
C14   H23    0.95094       .     S
H23   C14    0.95094       .     S
C15   C40    1.54601       .     S
C40   C15    1.54601       .     S
C15   C67    1.54601   1_455     S
C67   C15    1.54601   1_655     S
C15   C94    1.54601   1_455     S
C94   C15    1.54602   1_655     S
N28   C30    1.32295       .     S
C30   N28    1.32295       .     S
N28   H53    0.89778       .     S
H53   N28    0.89778       .     S
N28   H54    0.89934       .     S
H54   N28    0.89934       .     S
N29   C30    1.30086       .     S
C30   N29    1.30086       .     S
N29   H51    0.90262       .     S
H51   N29    0.90262       .     S
N29   H52    0.89807       .     S
H52   N29    0.89807       .     S
C30   C31    1.42829       .     S
C31   C30    1.42829       .     S
C31   C32    1.40389       .     S
C32   C31    1.40389       .     S
C31   C36    1.41059       .     S
C36   C31    1.41059       .     S
C32   C33    1.39594       .     S
C33   C32    1.39594       .     S
C32   H43    0.94896       .     S
H43   C32    0.94896       .     S
C33   C34    1.40414   1_565     S
C34   C33    1.40414   1_545     S
C33   H44    0.94887   1_455     S
H44   C33    0.94887   1_655     S
C34   C35    1.41127   1_545     S
C35   C34    1.41127   1_565     S
C34   C37    1.46322       .     S
C37   C34    1.46322       .     S
C35   C36    1.40060       .     S
C36   C35    1.40060       .     S
C35   H45    0.95041   1_565     S
H45   C35    0.95041   1_545     S
C36   H46    0.95024       .     S
H46   C36    0.95024       .     S
C37   C38    1.39919       .     S
C38   C37    1.39919       .     S
C37   C42    1.39434       .     S
C42   C37    1.39434       .     S
C38   C39    1.38768   1_455     S
C39   C38    1.38768   1_655     S
C38   H47    0.94999   1_455     S
H47   C38    0.94999   1_655     S
C39   C40    1.38042   1_655     S
C40   C39    1.38042   1_455     S
C39   H48    0.95101       .     S
H48   C39    0.95101       .     S
C40   C41    1.39882       .     S
C41   C40    1.39882       .     S
C41   C42    1.39884       .     S
C42   C41    1.39884       .     S
C41   H49    0.95023       .     S
H49   C41    0.95023       .     S
C42   H50    0.95094       .     S
H50   C42    0.95094       .     S
N55   C57    1.32295       .     S
C57   N55    1.32295       .     S
N55   H80    0.89778       .     S
H80   N55    0.89778       .     S
N55   H81    0.89934       .     S
H81   N55    0.89934       .     S
N56   C57    1.30086       .     S
C57   N56    1.30086       .     S
N56   H78    0.90262       .     S
H78   N56    0.90262       .     S
N56   H79    0.89807       .     S
H79   N56    0.89807       .     S
C57   C58    1.42829       .     S
C58   C57    1.42829       .     S
C58   C59    1.40389       .     S
C59   C58    1.40389       .     S
C58   C63    1.41059       .     S
C63   C58    1.41059       .     S
C59   C60    1.39594       .     S
C60   C59    1.39594       .     S
C59   H70    0.94896       .     S
H70   C59    0.94896       .     S
C60   C61    1.40414       .     S
C61   C60    1.40414       .     S
C60   H71    0.94887       .     S
H71   C60    0.94887       .     S
C61   C62    1.41127       .     S
C62   C61    1.41127       .     S
C61   C64    1.46322       .     S
C64   C61    1.46322       .     S
C62   C63    1.40060       .     S
C63   C62    1.40060       .     S
C62   H72    0.95041       .     S
H72   C62    0.95041       .     S
C63   H73    0.95024       .     S
H73   C63    0.95024       .     S
C64   C65    1.39919       .     S
C65   C64    1.39919       .     S
C64   C69    1.39434       .     S
C69   C64    1.39434       .     S
C65   C66    1.38768       .     S
C66   C65    1.38768       .     S
C65   H74    0.94999       .     S
H74   C65    0.94999       .     S
C66   C67    1.38042       .     S
C67   C66    1.38042       .     S
C66   H75    0.95101       .     S
H75   C66    0.95101       .     S
C67   C68    1.39882       .     S
C68   C67    1.39882       .     S
C68   C69    1.39884       .     S
C69   C68    1.39884       .     S
C68   H76    0.95023       .     S
H76   C68    0.95023       .     S
C69   H77    0.95094       .     S
H77   C69    0.95094       .     S
N82   C84    1.32295       .     S
C84   N82    1.32295       .     S
N82   H107   0.89778       .     S
H107  N82    0.89778       .     S
N82   H108   0.89934       .     S
H108  N82    0.89934       .     S
N83   C84    1.30086       .     S
C84   N83    1.30086       .     S
N83   H105   0.90262       .     S
H105  N83    0.90262       .     S
N83   H106   0.89807       .     S
H106  N83    0.89807       .     S
C84   C85    1.42829       .     S
C85   C84    1.42829       .     S
C85   C86    1.40389       .     S
C86   C85    1.40389       .     S
C85   C90    1.41059       .     S
C90   C85    1.41059       .     S
C86   C87    1.39594       .     S
C87   C86    1.39594       .     S
C86   H97    0.94896       .     S
H97   C86    0.94896       .     S
C87   C88    1.40414       .     S
C88   C87    1.40414       .     S
C87   H98    0.94886   1_655     S
H98   C87    0.94887   1_455     S
C88   C89    1.41127       .     S
C89   C88    1.41127       .     S
C88   C91    1.46322       .     S
C91   C88    1.46322       .     S
C89   C90    1.40060       .     S
C90   C89    1.40060       .     S
C89   H99    0.95041       .     S
H99   C89    0.95041       .     S
C90   H100   0.95024       .     S
H100  C90    0.95024       .     S
C91   C92    1.39919       .     S
C92   C91    1.39919       .     S
C91   C96    1.39434       .     S
C96   C91    1.39434       .     S
C92   C93    1.38768   1_655     S
C93   C92    1.38768   1_455     S
C92   H101   0.94999   1_655     S
H101  C92    0.94999   1_455     S
C93   C94    1.38042   1_455     S
C94   C93    1.38042   1_655     S
C93   H102   0.95101       .     S
H102  C93    0.95101       .     S
C94   C95    1.39882       .     S
C95   C94    1.39882       .     S
C95   C96    1.39884       .     S
C96   C95    1.39884       .     S
C95   H103   0.95023       .     S
H103  C95    0.95023       .     S
C96   H104   0.95094       .     S
H104  C96    0.95094       .     S
O109  C111   1.26401       .     S
C111  O109   1.26401       .     S
O110  C111   1.26966       .     S
C111  O110   1.26966       .     S
C111  C112   1.48767       .     S
C112  C111   1.48767       .     S
C112  C113   1.41737       .     S
C113  C112   1.41737       .     S
C112  C132   1.42995       .     S
C132  C112   1.42995       .     S
C113  C114   1.40199       .     S
C114  C113   1.40199       .     S
C113  C118   1.41416       .     S
C118  C113   1.41416       .     S
C114  C115   1.40519       .     S
C115  C114   1.40519       .     S
C114  H119   0.94980       .     S
H119  C114   0.94980       .     S
C115  C116   1.40489       .     S
C116  C115   1.40489       .     S
C115  H120   0.94920       .     S
H120  C115   0.94920       .     S
C116  C117   1.39911       .     S
C117  C116   1.39911       .     S
C116  H121   0.95130       .     S
H121  C116   0.95130       .     S
C117  C118   1.40825       .     S
C118  C117   1.40825       .     S
C117  H122   0.94982       .     S
H122  C117   0.94982       .     S
C118  C126   1.42995       .     S
C126  C118   1.42995       .     S
O123  C125   1.26401       .     S
C125  O123   1.26401       .     S
O124  C125   1.26966       .     S
C125  O124   1.26966       .     S
C125  C126   1.48767       .     S
C126  C125   1.48767       .     S
C126  C127   1.41737       .     S
C127  C126   1.41737       .     S
C127  C128   1.40199       .     S
C128  C127   1.40199       .     S
C127  C132   1.41416       .     S
C132  C127   1.41416       .     S
C128  C129   1.40519       .     S
C129  C128   1.40519       .     S
C128  H133   0.94980       .     S
H133  C128   0.94980       .     S
C129  C130   1.40489       .     S
C130  C129   1.40489       .     S
C129  H134   0.94920       .     S
H134  C129   0.94920       .     S
C130  C131   1.39912       .     S
C131  C130   1.39912       .     S
C130  H135   0.95130       .     S
H135  C130   0.95130       .     S
C131  C132   1.40825       .     S
C132  C131   1.40825       .     S
C131  H136   0.94982       .     S
H136  C131   0.94982       .     S
O109  H25    1.96444       .     S
H25   O109   1.96444       .     S
C2    N0     1.32295       .     S
N0    C2     1.32295       .     S
H26   N0     0.89778       .     S
N0    H26    0.89778       .     S
H27   N0     0.89934       .     S
N0    H27    0.89934       .     S
C2    N1     1.30086       .     S
N1    C2     1.30086       .     S
H24   N1     0.90262       .     S
N1    H24    0.90262       .     S
H25   N1     0.89807       .     S
N1    H25    0.89807       .     S
C3    C2     1.42829       .     S
C2    C3     1.42829       .     S
C4    C3     1.40389       .     S
C3    C4     1.40389       .     S
C8    C3     1.41060       .     S
C3    C8     1.41060       .     S
C5    C4     1.39594       .     S
C4    C5     1.39594       .     S
H16   C4     0.94896       .     S
C4    H16    0.94896       .     S
C6    C5     1.40414       .     S
C5    C6     1.40414       .     S
H17   C5     0.94887       .     S
C5    H17    0.94887       .     S
C7    C6     1.41127       .     S
C6    C7     1.41127       .     S
C9    C6     1.46322       .     S
C6    C9     1.46322       .     S
C8    C7     1.40060       .     S
C7    C8     1.40060       .     S
H18   C7     0.95041       .     S
C7    H18    0.95041       .     S
H19   C8     0.95024       .     S
C8    H19    0.95024       .     S
C10   C9     1.39919       .     S
C9    C10    1.39919       .     S
C14   C9     1.39434       .     S
C9    C14    1.39434       .     S
C11   C10    1.38768       .     S
C10   C11    1.38768       .     S
H20   C10    0.94999       .     S
C10   H20    0.94999       .     S
C12   C11    1.38042       .     S
C11   C12    1.38042       .     S
H21   C11    0.95101       .     S
C11   H21    0.95101       .     S
C13   C12    1.39882       .     S
C12   C13    1.39882       .     S
C15   C12    1.54601       .     S
C12   C15    1.54601       .     S
C14   C13    1.39884       .     S
C13   C14    1.39884       .     S
H22   C13    0.95023       .     S
C13   H22    0.95023       .     S
H23   C14    0.95094       .     S
C14   H23    0.95094       .     S
C40   C15    1.54601       .     S
C15   C40    1.54601       .     S
C67   C15    1.54601   1_655     S
C15   C67    1.54601   1_455     S
C94   C15    1.54602   1_655     S
C15   C94    1.54601   1_455     S
C30   N28    1.32295       .     S
N28   C30    1.32295       .     S
H53   N28    0.89778       .     S
N28   H53    0.89778       .     S
H54   N28    0.89934       .     S
N28   H54    0.89934       .     S
C30   N29    1.30086       .     S
N29   C30    1.30086       .     S
H51   N29    0.90262       .     S
N29   H51    0.90262       .     S
H52   N29    0.89807       .     S
N29   H52    0.89807       .     S
C31   C30    1.42829       .     S
C30   C31    1.42829       .     S
C32   C31    1.40389       .     S
C31   C32    1.40389       .     S
C36   C31    1.41059       .     S
C31   C36    1.41059       .     S
C33   C32    1.39594       .     S
C32   C33    1.39594       .     S
H43   C32    0.94896       .     S
C32   H43    0.94896       .     S
C34   C33    1.40414   1_545     S
C33   C34    1.40414   1_565     S
H44   C33    0.94887   1_655     S
C33   H44    0.94887   1_455     S
C35   C34    1.41127   1_565     S
C34   C35    1.41127   1_545     S
C37   C34    1.46322       .     S
C34   C37    1.46322       .     S
C36   C35    1.40060       .     S
C35   C36    1.40060       .     S
H45   C35    0.95041   1_545     S
C35   H45    0.95041   1_565     S
H46   C36    0.95024       .     S
C36   H46    0.95024       .     S
C38   C37    1.39919       .     S
C37   C38    1.39919       .     S
C42   C37    1.39434       .     S
C37   C42    1.39434       .     S
C39   C38    1.38768   1_655     S
C38   C39    1.38768   1_455     S
H47   C38    0.94999   1_655     S
C38   H47    0.94999   1_455     S
C40   C39    1.38042   1_455     S
C39   C40    1.38042   1_655     S
H48   C39    0.95101       .     S
C39   H48    0.95101       .     S
C41   C40    1.39882       .     S
C40   C41    1.39882       .     S
C42   C41    1.39884       .     S
C41   C42    1.39884       .     S
H49   C41    0.95023       .     S
C41   H49    0.95023       .     S
H50   C42    0.95094       .     S
C42   H50    0.95094       .     S
C57   N55    1.32295       .     S
N55   C57    1.32295       .     S
H80   N55    0.89778       .     S
N55   H80    0.89778       .     S
H81   N55    0.89934       .     S
N55   H81    0.89934       .     S
C57   N56    1.30086       .     S
N56   C57    1.30086       .     S
H78   N56    0.90262       .     S
N56   H78    0.90262       .     S
H79   N56    0.89807       .     S
N56   H79    0.89807       .     S
C58   C57    1.42829       .     S
C57   C58    1.42829       .     S
C59   C58    1.40389       .     S
C58   C59    1.40389       .     S
C63   C58    1.41059       .     S
C58   C63    1.41059       .     S
C60   C59    1.39594       .     S
C59   C60    1.39594       .     S
H70   C59    0.94896       .     S
C59   H70    0.94896       .     S
C61   C60    1.40414       .     S
C60   C61    1.40414       .     S
H71   C60    0.94887       .     S
C60   H71    0.94887       .     S
C62   C61    1.41127       .     S
C61   C62    1.41127       .     S
C64   C61    1.46322       .     S
C61   C64    1.46322       .     S
C63   C62    1.40060       .     S
C62   C63    1.40060       .     S
H72   C62    0.95041       .     S
C62   H72    0.95041       .     S
H73   C63    0.95024       .     S
C63   H73    0.95024       .     S
C65   C64    1.39919       .     S
C64   C65    1.39919       .     S
C69   C64    1.39434       .     S
C64   C69    1.39434       .     S
C66   C65    1.38768       .     S
C65   C66    1.38768       .     S
H74   C65    0.94999       .     S
C65   H74    0.94999       .     S
C67   C66    1.38042       .     S
C66   C67    1.38042       .     S
H75   C66    0.95101       .     S
C66   H75    0.95101       .     S
C68   C67    1.39882       .     S
C67   C68    1.39882       .     S
C69   C68    1.39884       .     S
C68   C69    1.39884       .     S
H76   C68    0.95023       .     S
C68   H76    0.95023       .     S
H77   C69    0.95094       .     S
C69   H77    0.95094       .     S
C84   N82    1.32295       .     S
N82   C84    1.32295       .     S
H107  N82    0.89778       .     S
N82   H107   0.89778       .     S
H108  N82    0.89934       .     S
N82   H108   0.89934       .     S
C84   N83    1.30086       .     S
N83   C84    1.30086       .     S
H105  N83    0.90262       .     S
N83   H105   0.90262       .     S
H106  N83    0.89807       .     S
N83   H106   0.89807       .     S
C85   C84    1.42829       .     S
C84   C85    1.42829       .     S
C86   C85    1.40389       .     S
C85   C86    1.40389       .     S
C90   C85    1.41059       .     S
C85   C90    1.41059       .     S
C87   C86    1.39594       .     S
C86   C87    1.39594       .     S
H97   C86    0.94896       .     S
C86   H97    0.94896       .     S
C88   C87    1.40414       .     S
C87   C88    1.40414       .     S
H98   C87    0.94887   1_455     S
C87   H98    0.94886   1_655     S
C89   C88    1.41127       .     S
C88   C89    1.41127       .     S
C91   C88    1.46322       .     S
C88   C91    1.46322       .     S
C90   C89    1.40060       .     S
C89   C90    1.40060       .     S
H99   C89    0.95041       .     S
C89   H99    0.95041       .     S
H100  C90    0.95024       .     S
C90   H100   0.95024       .     S
C92   C91    1.39919       .     S
C91   C92    1.39919       .     S
C96   C91    1.39434       .     S
C91   C96    1.39434       .     S
C93   C92    1.38768   1_455     S
C92   C93    1.38768   1_655     S
H101  C92    0.94999   1_455     S
C92   H101   0.94999   1_655     S
C94   C93    1.38042   1_655     S
C93   C94    1.38042   1_455     S
H102  C93    0.95101       .     S
C93   H102   0.95101       .     S
C95   C94    1.39882       .     S
C94   C95    1.39882       .     S
C96   C95    1.39884       .     S
C95   C96    1.39884       .     S
H103  C95    0.95023       .     S
C95   H103   0.95023       .     S
H104  C96    0.95094       .     S
C96   H104   0.95094       .     S
C111  O109   1.26401       .     S
O109  C111   1.26401       .     S
C111  O110   1.26966       .     S
O110  C111   1.26966       .     S
C112  C111   1.48767       .     S
C111  C112   1.48767       .     S
C113  C112   1.41737       .     S
C112  C113   1.41737       .     S
C132  C112   1.42995       .     S
C112  C132   1.42995       .     S
C114  C113   1.40199       .     S
C113  C114   1.40199       .     S
C118  C113   1.41416       .     S
C113  C118   1.41416       .     S
C115  C114   1.40519       .     S
C114  C115   1.40519       .     S
H119  C114   0.94980       .     S
C114  H119   0.94980       .     S
C116  C115   1.40489       .     S
C115  C116   1.40489       .     S
H120  C115   0.94920       .     S
C115  H120   0.94920       .     S
C117  C116   1.39911       .     S
C116  C117   1.39911       .     S
H121  C116   0.95130       .     S
C116  H121   0.95130       .     S
C118  C117   1.40825       .     S
C117  C118   1.40825       .     S
H122  C117   0.94982       .     S
C117  H122   0.94982       .     S
C126  C118   1.42995       .     S
C118  C126   1.42995       .     S
C125  O123   1.26401       .     S
O123  C125   1.26401       .     S
C125  O124   1.26966       .     S
O124  C125   1.26966       .     S
C126  C125   1.48767       .     S
C125  C126   1.48767       .     S
C127  C126   1.41737       .     S
C126  C127   1.41737       .     S
C128  C127   1.40199       .     S
C127  C128   1.40199       .     S
C132  C127   1.41416       .     S
C127  C132   1.41416       .     S
C129  C128   1.40519       .     S
C128  C129   1.40519       .     S
H133  C128   0.94980       .     S
C128  H133   0.94980       .     S
C130  C129   1.40489       .     S
C129  C130   1.40489       .     S
H134  C129   0.94920       .     S
C129  H134   0.94920       .     S
C131  C130   1.39912       .     S
C130  C131   1.39912       .     S
H135  C130   0.95130       .     S
C130  H135   0.95130       .     S
C132  C131   1.40825       .     S
C131  C132   1.40825       .     S
H136  C131   0.94982       .     S
C131  H136   0.94982       .     S
