data_I
_chemical_name_common  '/data/user2/wty/HOF/MOFDiff/mofdiff/data/test/293-abiphen'
_cell_length_a 18.88760
_cell_length_b 18.88760
_cell_length_c 14.63620
_cell_angle_alpha 90.00000
_cell_angle_beta  90.00000
_cell_angle_gamma 120.00000
_space_group_name_H-M_alt      'P 1'


loop_
_space_group_symop_operation_xyz
  'x, y, z' 

loop_
_atom_site_label
_atom_site_fract_x
_atom_site_fract_y
_atom_site_fract_z
_atom_site_type_symbol
O0     0.46829   0.2016  0.31818     O
O1     0.33767  0.12775  0.36084     O
C2     0.39479  0.14788  0.30395     C
C3     0.37367  0.10379  0.21329     C
C4      0.4345  0.10309  0.16047     C
C5     0.41495  0.06167  0.07731     C
C6     0.33498  0.02129  0.04493     C
C7     0.27423  0.02129  0.09887     C
C8     0.29349  0.06247  0.18195     C
H9      0.4869   0.1307   0.1808     H
H10     0.4576   0.0669   0.0427     H
H11     0.2203   0.9947   0.0731     H
H12      0.253   0.0599   0.2184     H
O13    0.26669   0.7984  0.68182     O
O14    0.20992  0.87225  0.63916     O
C15    0.24691  0.85212  0.69605     C
C16    0.26988  0.89621  0.78671     C
C17    0.33141  0.89691  0.83953     C
C18    0.35328  0.93833  0.92269     C
C19    0.31369  0.97871  0.95507     C
C20    0.25294  0.97871  0.90113     C
C21    0.23102  0.93753  0.81805     C
H22     0.3562   0.8693   0.8192     H
H23     0.3907   0.9331   0.9573     H
H24     0.2256   0.0053   0.9269     H
H25     0.1931   0.9401   0.7816     H
N26    0.50337  0.29389  0.47859     N
N27     0.3747  0.20566  0.52765     N
C28    0.44542  0.27155  0.54005     C
C29    0.45881  0.32281  0.62232     C
C30     0.3932  0.32557  0.66089     C
C31    0.40514  0.37929  0.73134     C
C32    0.48286  0.42988  0.76645     C
C33    0.54789  0.42469  0.72922     C
C34    0.53637  0.37151  0.65758     C
C35        0.5      0.5   0.8333     C
H36     0.3414   0.2901   0.6421     H
H37     0.3642   0.3878   0.7532     H
H38     0.6064   0.4607   0.7498     H
H39     0.5811   0.3686   0.6297     H
H40     0.3619   0.1843    0.474     H
H41     0.5543    0.315   0.4924     H
H42     0.4991   0.2657   0.4271     H
H43     0.3398   0.1831   0.5737     H
N44    0.70611  0.49663  0.18808     N
N45    0.79434   0.6253  0.13902     N
C46    0.72845  0.55458  0.12662     C
C47    0.67719  0.54119  0.04435     C
C48    0.67443   0.6068  0.00578     C
C49    0.62071  0.59486  0.93533     C
C50    0.57012  0.51714  0.90022     C
C51    0.57531  0.45211  0.93745     C
C52    0.62849  0.46363  0.00909     C
H53     0.7099   0.6586   0.0246     H
H54     0.6122   0.6358   0.9135     H
H55     0.5393   0.3936   0.9169     H
H56     0.6314   0.4189    0.037     H
H57     0.8157   0.6381   0.1927     H
H58      0.685   0.4457   0.1743     H
H59     0.7343   0.5009   0.2396     H
H60     0.8169   0.6602    0.093     H
N61    0.49663  0.70611  0.47859     N
N62     0.6253  0.79434  0.52765     N
C63    0.55458  0.72845  0.54005     C
C64    0.54119  0.67719  0.62232     C
C65     0.6068  0.67443  0.66089     C
C66    0.59486  0.62071  0.73134     C
C67    0.51714  0.57012  0.76645     C
C68    0.45211  0.57531  0.72922     C
C69    0.46363  0.62849  0.65758     C
H70     0.6586   0.7099   0.6421     H
H71     0.6358   0.6122   0.7532     H
H72     0.3936   0.5393   0.7498     H
H73     0.4189   0.6314   0.6297     H
H74     0.6381   0.8157    0.474     H
H75     0.4457    0.685   0.4924     H
H76     0.5009   0.7343   0.4271     H
H77     0.6602   0.8169   0.5737     H
N78    0.29389  0.50337  0.18808     N
N79    0.20566   0.3747  0.13902     N
C80    0.27155  0.44542  0.12662     C
C81    0.32281  0.45881  0.04435     C
C82    0.32557   0.3932  0.00578     C
C83    0.37929  0.40514  0.93533     C
C84    0.42988  0.48286  0.90022     C
C85    0.42469  0.54789  0.93745     C
C86    0.37151  0.53637  0.00909     C
H87     0.2901   0.3414   0.0246     H
H88     0.3878   0.3642   0.9135     H
H89     0.4607   0.6064   0.9169     H
H90     0.3686   0.5811    0.037     H
H91     0.1843   0.3619   0.1927     H
H92      0.315   0.5543   0.1743     H
H93     0.2657   0.4991   0.2396     H
H94     0.1831   0.3398    0.093     H
loop_
_geom_bond_atom_site_label_1
_geom_bond_atom_site_label_2
_geom_bond_distance
_geom_bond_site_symmetry_2
_ccdc_geom_bond_type
H40   O1     1.89857       .     S
O1    H40    1.89857       .     S
H42   O0     1.90821       .     S
O0    H42    1.90821       .     S
O0    C2     1.26155       .     S
C2    O0     1.26155       .     S
O1    C2     1.26159       .     S
C2    O1     1.26159       .     S
C2    C3     1.51034       .     S
C3    C2     1.51034       .     S
C3    C4     1.39035       .     S
C4    C3     1.39035       .     S
C3    C8     1.38961       .     S
C8    C3     1.38961       .     S
C4    C5     1.39318       .     S
C5    C4     1.39318       .     S
C4    H9     0.90768       .     S
H9    C4     0.90768       .     S
C5    C6     1.39131       .     S
C6    C5     1.39131       .     S
C5    H10    0.91417       .     S
H10   C5     0.91417       .     S
C6    C7     1.39279       .     S
C7    C6     1.39279       .     S
C6    C19    1.48824   1_544     S
C19   C6     1.48824   1_566     S
C7    C8     1.39030       .     S
C8    C7     1.39030       .     S
C7    H11    0.95942   1_545     S
H11   C7     0.95942   1_565     S
C8    H12    0.91362       .     S
H12   C8     0.91362       .     S
O13   C15    1.26155       .     S
C15   O13    1.26155       .     S
O14   C15    1.26159       .     S
C15   O14    1.26159       .     S
C15   C16    1.51034       .     S
C16   C15    1.51034       .     S
C16   C17    1.39035       .     S
C17   C16    1.39035       .     S
C16   C21    1.38961       .     S
C21   C16    1.38961       .     S
C17   C18    1.39318       .     S
C18   C17    1.39318       .     S
C17   H22    0.90769       .     S
H22   C17    0.90769       .     S
C18   C19    1.39131       .     S
C19   C18    1.39131       .     S
C18   H23    0.91417       .     S
H23   C18    0.91417       .     S
C19   C20    1.39279       .     S
C20   C19    1.39279       .     S
C20   C21    1.39030       .     S
C21   C20    1.39030       .     S
C20   H24    0.95942   1_565     S
H24   C20    0.95942   1_545     S
C21   H25    0.91362       .     S
H25   C21    0.91362       .     S
N26   C28    1.31278       .     S
C28   N26    1.31278       .     S
N26   H41    0.86118       .     S
H41   N26    0.86118       .     S
N26   H42    0.90277       .     S
H42   N26    0.90277       .     S
N27   C28    1.30521       .     S
C28   N27    1.30521       .     S
N27   H40    0.86039       .     S
H40   N27    0.86039       .     S
N27   H43    0.88852       .     S
H43   N27    0.88852       .     S
C28   C29    1.48539       .     S
C29   C28    1.48539       .     S
C29   C30    1.38624       .     S
C30   C29    1.38624       .     S
C29   C34    1.38236       .     S
C34   C29    1.38236       .     S
C30   C31    1.38374       .     S
C31   C30    1.38374       .     S
C30   H36    0.90897       .     S
H36   C30    0.90897       .     S
C31   C32    1.38899       .     S
C32   C31    1.38899       .     S
C31   H37    0.92218       .     S
H37   C31    0.92218       .     S
C32   C33    1.39124       .     S
C33   C32    1.39124       .     S
C32   C35    1.54512       .     S
C35   C32    1.54512       .     S
C33   C34    1.39181       .     S
C34   C33    1.39181       .     S
C33   H38    1.01142       .     S
H38   C33    1.01142       .     S
C34   H39    0.96422       .     S
H39   C34    0.96422       .     S
C35   C50    1.54577       .     S
C50   C35    1.54577       .     S
C35   C67    1.54512       .     S
C67   C35    1.54512       .     S
C35   C84    1.54577       .     S
C84   C35    1.54577       .     S
N44   C46    1.31278       .     S
C46   N44    1.31278       .     S
N44   H58    0.86107       .     S
H58   N44    0.86107       .     S
N44   H59    0.90314       .     S
H59   N44    0.90314       .     S
N45   C46    1.30521       .     S
C46   N45    1.30521       .     S
N45   H57    0.86079       .     S
H57   N45    0.86079       .     S
N45   H60    0.88819       .     S
H60   N45    0.88819       .     S
C46   C47    1.48539       .     S
C47   C46    1.48539       .     S
C47   C48    1.38624       .     S
C48   C47    1.38624       .     S
C47   C52    1.38237       .     S
C52   C47    1.38237       .     S
C48   C49    1.38374   1_554     S
C49   C48    1.38374   1_556     S
C48   H53    0.90910       .     S
H53   C48    0.90910       .     S
C49   C50    1.38899       .     S
C50   C49    1.38899       .     S
C49   H54    0.92203       .     S
H54   C49    0.92203       .     S
C50   C51    1.39124       .     S
C51   C50    1.39124       .     S
C51   C52    1.39181   1_556     S
C52   C51    1.39181   1_554     S
C51   H55    1.01129       .     S
H55   C51    1.01129       .     S
C52   H56    0.96441       .     S
H56   C52    0.96441       .     S
N61   C63    1.31278       .     S
C63   N61    1.31278       .     S
N61   H75    0.86118       .     S
H75   N61    0.86118       .     S
N61   H76    0.90277       .     S
H76   N61    0.90277       .     S
N62   C63    1.30521       .     S
C63   N62    1.30521       .     S
N62   H74    0.86039       .     S
H74   N62    0.86039       .     S
N62   H77    0.88852       .     S
H77   N62    0.88852       .     S
C63   C64    1.48539       .     S
C64   C63    1.48539       .     S
C64   C65    1.38624       .     S
C65   C64    1.38624       .     S
C64   C69    1.38237       .     S
C69   C64    1.38237       .     S
C65   C66    1.38374       .     S
C66   C65    1.38374       .     S
C65   H70    0.90897       .     S
H70   C65    0.90897       .     S
C66   C67    1.38899       .     S
C67   C66    1.38899       .     S
C66   H71    0.92218       .     S
H71   C66    0.92218       .     S
C67   C68    1.39124       .     S
C68   C67    1.39124       .     S
C68   C69    1.39181       .     S
C69   C68    1.39181       .     S
C68   H72    1.01142       .     S
H72   C68    1.01142       .     S
C69   H73    0.96422       .     S
H73   C69    0.96422       .     S
N78   C80    1.31278       .     S
C80   N78    1.31278       .     S
N78   H92    0.86107       .     S
H92   N78    0.86107       .     S
N78   H93    0.90314       .     S
H93   N78    0.90314       .     S
N79   C80    1.30521       .     S
C80   N79    1.30521       .     S
N79   H91    0.86079       .     S
H91   N79    0.86079       .     S
N79   H94    0.88819       .     S
H94   N79    0.88819       .     S
C80   C81    1.48539       .     S
C81   C80    1.48539       .     S
C81   C82    1.38624       .     S
C82   C81    1.38624       .     S
C81   C86    1.38236       .     S
C86   C81    1.38236       .     S
C82   C83    1.38374   1_554     S
C83   C82    1.38374   1_556     S
C82   H87    0.90910       .     S
H87   C82    0.90910       .     S
C83   C84    1.38899       .     S
C84   C83    1.38899       .     S
C83   H88    0.92203       .     S
H88   C83    0.92203       .     S
C84   C85    1.39124       .     S
C85   C84    1.39124       .     S
C85   C86    1.39181   1_556     S
C86   C85    1.39181   1_554     S
C85   H89    1.01129       .     S
H89   C85    1.01129       .     S
C86   H90    0.96441       .     S
H90   C86    0.96441       .     S
O1    H40    1.89857       .     S
H40   O1     1.89857       .     S
O0    H42    1.90821       .     S
H42   O0     1.90821       .     S
C2    O0     1.26155       .     S
O0    C2     1.26155       .     S
C2    O1     1.26159       .     S
O1    C2     1.26159       .     S
C3    C2     1.51034       .     S
C2    C3     1.51034       .     S
C4    C3     1.39035       .     S
C3    C4     1.39035       .     S
C8    C3     1.38961       .     S
C3    C8     1.38961       .     S
C5    C4     1.39318       .     S
C4    C5     1.39318       .     S
H9    C4     0.90768       .     S
C4    H9     0.90768       .     S
C6    C5     1.39131       .     S
C5    C6     1.39131       .     S
H10   C5     0.91417       .     S
C5    H10    0.91417       .     S
C7    C6     1.39279       .     S
C6    C7     1.39279       .     S
C19   C6     1.48824   1_566     S
C6    C19    1.48824   1_544     S
C8    C7     1.39030       .     S
C7    C8     1.39030       .     S
H11   C7     0.95942   1_565     S
C7    H11    0.95942   1_545     S
H12   C8     0.91362       .     S
C8    H12    0.91362       .     S
C15   O13    1.26155       .     S
O13   C15    1.26155       .     S
C15   O14    1.26159       .     S
O14   C15    1.26159       .     S
C16   C15    1.51034       .     S
C15   C16    1.51034       .     S
C17   C16    1.39035       .     S
C16   C17    1.39035       .     S
C21   C16    1.38961       .     S
C16   C21    1.38961       .     S
C18   C17    1.39318       .     S
C17   C18    1.39318       .     S
H22   C17    0.90769       .     S
C17   H22    0.90769       .     S
C19   C18    1.39131       .     S
C18   C19    1.39131       .     S
H23   C18    0.91417       .     S
C18   H23    0.91417       .     S
C20   C19    1.39279       .     S
C19   C20    1.39279       .     S
C21   C20    1.39030       .     S
C20   C21    1.39030       .     S
H24   C20    0.95942   1_545     S
C20   H24    0.95942   1_565     S
H25   C21    0.91362       .     S
C21   H25    0.91362       .     S
C28   N26    1.31278       .     S
N26   C28    1.31278       .     S
H41   N26    0.86118       .     S
N26   H41    0.86118       .     S
H42   N26    0.90277       .     S
N26   H42    0.90277       .     S
C28   N27    1.30521       .     S
N27   C28    1.30521       .     S
H40   N27    0.86039       .     S
N27   H40    0.86039       .     S
H43   N27    0.88852       .     S
N27   H43    0.88852       .     S
C29   C28    1.48539       .     S
C28   C29    1.48539       .     S
C30   C29    1.38624       .     S
C29   C30    1.38624       .     S
C34   C29    1.38236       .     S
C29   C34    1.38236       .     S
C31   C30    1.38374       .     S
C30   C31    1.38374       .     S
H36   C30    0.90897       .     S
C30   H36    0.90897       .     S
C32   C31    1.38899       .     S
C31   C32    1.38899       .     S
H37   C31    0.92218       .     S
C31   H37    0.92218       .     S
C33   C32    1.39124       .     S
C32   C33    1.39124       .     S
C35   C32    1.54512       .     S
C32   C35    1.54512       .     S
C34   C33    1.39181       .     S
C33   C34    1.39181       .     S
H38   C33    1.01142       .     S
C33   H38    1.01142       .     S
H39   C34    0.96422       .     S
C34   H39    0.96422       .     S
C50   C35    1.54577       .     S
C35   C50    1.54577       .     S
C67   C35    1.54512       .     S
C35   C67    1.54512       .     S
C84   C35    1.54577       .     S
C35   C84    1.54577       .     S
C46   N44    1.31278       .     S
N44   C46    1.31278       .     S
H58   N44    0.86107       .     S
N44   H58    0.86107       .     S
H59   N44    0.90314       .     S
N44   H59    0.90314       .     S
C46   N45    1.30521       .     S
N45   C46    1.30521       .     S
H57   N45    0.86079       .     S
N45   H57    0.86079       .     S
H60   N45    0.88819       .     S
N45   H60    0.88819       .     S
C47   C46    1.48539       .     S
C46   C47    1.48539       .     S
C48   C47    1.38624       .     S
C47   C48    1.38624       .     S
C52   C47    1.38237       .     S
C47   C52    1.38237       .     S
C49   C48    1.38374   1_556     S
C48   C49    1.38374   1_554     S
H53   C48    0.90910       .     S
C48   H53    0.90910       .     S
C50   C49    1.38899       .     S
C49   C50    1.38899       .     S
H54   C49    0.92203       .     S
C49   H54    0.92203       .     S
C51   C50    1.39124       .     S
C50   C51    1.39124       .     S
C52   C51    1.39181   1_554     S
C51   C52    1.39181   1_556     S
H55   C51    1.01129       .     S
C51   H55    1.01129       .     S
H56   C52    0.96441       .     S
C52   H56    0.96441       .     S
C63   N61    1.31278       .     S
N61   C63    1.31278       .     S
H75   N61    0.86118       .     S
N61   H75    0.86118       .     S
H76   N61    0.90277       .     S
N61   H76    0.90277       .     S
C63   N62    1.30521       .     S
N62   C63    1.30521       .     S
H74   N62    0.86039       .     S
N62   H74    0.86039       .     S
H77   N62    0.88852       .     S
N62   H77    0.88852       .     S
C64   C63    1.48539       .     S
C63   C64    1.48539       .     S
C65   C64    1.38624       .     S
C64   C65    1.38624       .     S
C69   C64    1.38237       .     S
C64   C69    1.38237       .     S
C66   C65    1.38374       .     S
C65   C66    1.38374       .     S
H70   C65    0.90897       .     S
C65   H70    0.90897       .     S
C67   C66    1.38899       .     S
C66   C67    1.38899       .     S
H71   C66    0.92218       .     S
C66   H71    0.92218       .     S
C68   C67    1.39124       .     S
C67   C68    1.39124       .     S
C69   C68    1.39181       .     S
C68   C69    1.39181       .     S
H72   C68    1.01142       .     S
C68   H72    1.01142       .     S
H73   C69    0.96422       .     S
C69   H73    0.96422       .     S
C80   N78    1.31278       .     S
N78   C80    1.31278       .     S
H92   N78    0.86107       .     S
N78   H92    0.86107       .     S
H93   N78    0.90314       .     S
N78   H93    0.90314       .     S
C80   N79    1.30521       .     S
N79   C80    1.30521       .     S
H91   N79    0.86079       .     S
N79   H91    0.86079       .     S
H94   N79    0.88819       .     S
N79   H94    0.88819       .     S
C81   C80    1.48539       .     S
C80   C81    1.48539       .     S
C82   C81    1.38624       .     S
C81   C82    1.38624       .     S
C86   C81    1.38236       .     S
C81   C86    1.38236       .     S
C83   C82    1.38374   1_556     S
C82   C83    1.38374   1_554     S
H87   C82    0.90910       .     S
C82   H87    0.90910       .     S
C84   C83    1.38899       .     S
C83   C84    1.38899       .     S
H88   C83    0.92203       .     S
C83   H88    0.92203       .     S
C85   C84    1.39124       .     S
C84   C85    1.39124       .     S
C86   C85    1.39181   1_554     S
C85   C86    1.39181   1_556     S
H89   C85    1.01129       .     S
C85   H89    1.01129       .     S
H90   C86    0.96441       .     S
C86   H90    0.96441       .     S
