data_I
_chemical_name_common  '/data/user2/wty/HOF/MOFDiff/mofdiff/data/test/293-anh2'
_cell_length_a 13.20100
_cell_length_b 32.79300
_cell_length_c 13.05300
_cell_angle_alpha 90.00000
_cell_angle_beta  119.27000
_cell_angle_gamma 90.00000
_space_group_name_H-M_alt      'P 1'


loop_
_space_group_symop_operation_xyz
  'x, y, z' 

loop_
_atom_site_label
_atom_site_fract_x
_atom_site_fract_y
_atom_site_fract_z
_atom_site_type_symbol
H0     0.42599  0.45338  0.34272     H
C1      0.9441   0.3524   0.8094     C
N2      0.6375    0.275   0.8512     N
H3     0.58589  0.26546  0.86935     H
H4     0.63295  0.26838  0.78372     H
N5      0.7267   0.3085   0.0252     N
H6      0.6751  0.29901  0.04333     H
H7     0.78274  0.32461  0.07452     H
C8      0.8039   0.3153   0.8906     C
C9      0.7199   0.2986   0.9237     C
C10     0.8911   0.3149   0.7659     C
H11    0.90268  0.30141   0.7081     H
C12     0.8212   0.2968   0.8057     C
H13    0.78512  0.27133  0.77391     H
C14     0.8615   0.3518   0.9393     C
H15    0.85352  0.36423  0.00062     H
C16        0.0   0.3774     0.75     C
C17     0.8958   0.4025   0.6595     C
C18     0.9304   0.3702   0.8993     C
H19    0.96869  0.39513  0.93342     H
C20     0.8211   0.3849   0.5551     C
H21    0.84011  0.35929  0.53478     H
C22     0.8654    0.441   0.6856     C
H23     0.9142  0.45362  0.75917     H
N24     0.4938   0.4411   0.3805     N
H25    0.49776  0.41435  0.38181     H
C26     0.6898   0.4418   0.5072     C
C27     0.7188   0.4036   0.4787     C
H28    0.66717  0.39078  0.40643     H
C29     0.7616    0.461   0.6016     C
H30    0.74553  0.48809  0.61497     H
N31     0.5624   0.5015    0.421     N
H32    0.49274  0.51247  0.38238     H
H33    0.62398   0.5173  0.45649     H
C34      0.575   0.4596   0.4269     C
C35     0.0559   0.3524   0.6906     C
N36     0.3625    0.275   0.6488     N
H37    0.41411  0.26546  0.63065     H
H38    0.36705  0.26838  0.71628     H
N39     0.2733   0.3085   0.4748     N
H40    0.32489  0.29901  0.45666     H
H41    0.21726  0.32461  0.42548     H
C42     0.1961   0.3153   0.6094     C
C43     0.2801   0.2986   0.5763     C
C44     0.1089   0.3149   0.7341     C
H45    0.09732  0.30141   0.7919     H
C46     0.1788   0.2968   0.6943     C
H47    0.21488  0.27133  0.72609     H
C48     0.1385   0.3518   0.5607     C
H49    0.14648  0.36423  0.49938     H
C50     0.1042   0.4025   0.8405     C
C51     0.0696   0.3702   0.6007     C
H52    0.03131  0.39513  0.56658     H
C53     0.1789   0.3849   0.9449     C
H54    0.15989  0.35929  0.96522     H
C55     0.1346    0.441   0.8144     C
H56     0.0858  0.45362  0.74083     H
N57     0.5062   0.4411   0.1195     N
H58      0.574  0.45338  0.15728     H
H59    0.50224  0.41435  0.11819     H
C60     0.3102   0.4418   0.9928     C
C61     0.2812   0.4036   0.0213     C
H62    0.33283  0.39078  0.09357     H
C63     0.2384    0.461   0.8984     C
H64    0.25447  0.48809  0.88503     H
N65     0.4376   0.5015    0.079     N
H66    0.50726  0.51247  0.11762     H
H67    0.37602   0.5173   0.0435     H
C68      0.425   0.4596   0.0731     C
O69     0.4732   0.2885    0.458     O
O70      0.541  0.24724   0.6102     O
C71     0.6507   0.2565   0.5101     C
C72     0.6722   0.2795   0.4381     C
H73    0.61805  0.30021  0.39374     H
C74     0.5486   0.2642   0.5285     C
O75      0.959  0.25276   0.3898     O
O76     0.0268   0.2115    0.542     O
C77     0.8493   0.2435   0.4899     C
C78     0.8278   0.2205   0.5619     C
H79    0.88195  0.19979  0.60626     H
C80     0.9514   0.2358   0.4715     C
C81     0.7715   0.2745   0.4247     C
H82    0.78483  0.29146  0.37356     H
C83     0.7285   0.2255   0.5753     C
H84    0.71517  0.20854  0.62644     H
N85     0.7135   0.1989   0.6428     N
H86    0.65026  0.19978  0.64933     H
H87    0.76671  0.18021  0.68113     H
C88       0.89   0.4853    0.972     C
C89     0.8038   0.5362   0.8123     C
C90     0.9089   0.5158   0.9087     C
O91     0.7162   0.5147   0.7825     O
O92     0.7916   0.5649   0.7434     O
C93     0.0145   0.5319    0.931     C
H94    0.02162  0.55289  0.88507     H
C95     0.1962   0.4638   0.1877     C
C96     0.0911   0.4842   0.0913     C
C97       0.11   0.5147    0.028     C
H98    0.18609  0.52367  0.05036     H
O99     0.2838   0.4853   0.2175     O
O100    0.2084   0.4351   0.2566     O
C101    0.9855   0.4681    0.069     C
N102      0.97   0.4404     0.13     N
H103   0.02955  0.43013   0.1924     H
H104   0.89901  0.43186  0.10899     H
N105      0.03   0.5596     0.87     N
H106   0.97045  0.56987   0.8076     H
H107   0.10099  0.56814  0.89101     H
H108    0.8139  0.47633  0.94964     H
N109     0.807   0.4602    0.955     N
H110   0.82205  0.43891  0.00184     H
H111   0.73626  0.46444   0.8978     H
loop_
_geom_bond_atom_site_label_1
_geom_bond_atom_site_label_2
_geom_bond_distance
_geom_bond_site_symmetry_2
_ccdc_geom_bond_type
H0    O99    2.07135       .     S
O99   H0     2.07135       .     S
H0    O100   2.59158       .     S
O100  H0     2.59158       .     S
H4    O70    2.09657       .     S
O70   H4     2.09657       .     S
H37   O70    1.91608       .     S
O70   H37    1.91608       .     S
H40   O69    1.97958       .     S
O69   H40    1.97958       .     S
H86   O70    2.01074       .     S
O70   H86    2.01074       .     S
H103  O100   2.09008       .     S
O100  H103   2.09008       .     S
H104  N109   1.99797   1_554     S
N109  H104   1.99797   1_556     S
H106  O92    2.09008       .     S
O92   H106   2.09008       .     S
H108  O91    2.29236       .     S
O91   H108   2.29236       .     S
H110  N102   1.84947       .     S
N102  H110   1.84947       .     S
H111  O91    2.15916       .     S
O91   H111   2.15916       .     S
H0    N24    0.88034       .     S
N24   H0     0.88034       .     S
C1    C10    1.39130       .     S
C10   C1     1.39130       .     S
C1    C16    1.54185   1_655     S
C16   C1     1.54185   1_455     S
C1    C18    1.39928       .     S
C18   C1     1.39928       .     S
N2    H3     0.88091       .     S
H3    N2     0.88091       .     S
N2    H4     0.88025       .     S
H4    N2     0.88025       .     S
N2    C9     1.29272       .     S
C9    N2     1.29272       .     S
N5    H6     0.88004       .     S
H6    N5     0.88004       .     S
N5    H7     0.88041       .     S
H7    N5     0.88041       .     S
N5    C9     1.32381   1_554     S
C9    N5     1.32381   1_556     S
C8    C9     1.47807       .     S
C9    C8     1.47807       .     S
C8    C12    1.37688       .     S
C12   C8     1.37688       .     S
C8    C14    1.39366       .     S
C14   C8     1.39366       .     S
C10   H11    0.94924       .     S
H11   C10    0.94924       .     S
C10   C12    1.39371       .     S
C12   C10    1.39371       .     S
C12   H13    0.95047       .     S
H13   C12    0.95047       .     S
C14   H15    0.94887   1_556     S
H15   C14    0.94887   1_554     S
C14   C18    1.38865       .     S
C18   C14    1.38865       .     S
C16   C17    1.54148   1_455     S
C17   C16    1.54148   1_655     S
C16   C35    1.54185       .     S
C35   C16    1.54185       .     S
C16   C50    1.54148       .     S
C50   C16    1.54148       .     S
C17   C20    1.35960       .     S
C20   C17    1.35960       .     S
C17   C22    1.41591       .     S
C22   C17    1.41591       .     S
C18   H19    0.94977       .     S
H19   C18    0.94977       .     S
C20   H21    0.95065       .     S
H21   C20    0.95065       .     S
C20   C27    1.37018       .     S
C27   C20    1.37018       .     S
C22   H23    0.95054       .     S
H23   C22    0.95054       .     S
C22   C29    1.42858       .     S
C29   C22    1.42858       .     S
N24   H25    0.87844       .     S
H25   N24    0.87844       .     S
N24   C34    1.11761       .     S
C34   N24    1.11761       .     S
C26   C27    1.41190       .     S
C27   C26    1.41190       .     S
C26   C29    1.29270       .     S
C29   C26    1.29270       .     S
C26   C34    1.47741       .     S
C34   C26    1.47741       .     S
C27   H28    0.94998       .     S
H28   C27    0.94998       .     S
C29   H30    0.94913       .     S
H30   C29    0.94913       .     S
N31   H32    0.88083       .     S
H32   N31    0.88083       .     S
N31   H33    0.88071       .     S
H33   N31    0.88071       .     S
N31   C34    1.38167       .     S
C34   N31    1.38167       .     S
C35   C44    1.39130       .     S
C44   C35    1.39130       .     S
C35   C51    1.39928       .     S
C51   C35    1.39928       .     S
N36   H37    0.88091       .     S
H37   N36    0.88091       .     S
N36   H38    0.88025       .     S
H38   N36    0.88025       .     S
N36   C43    1.29273       .     S
C43   N36    1.29273       .     S
N39   H40    0.88001       .     S
H40   N39    0.88001       .     S
N39   H41    0.88041       .     S
H41   N39    0.88041       .     S
N39   C43    1.32381       .     S
C43   N39    1.32381       .     S
C42   C43    1.47807       .     S
C43   C42    1.47807       .     S
C42   C46    1.37688       .     S
C46   C42    1.37688       .     S
C42   C48    1.39366       .     S
C48   C42    1.39366       .     S
C44   H45    0.94924       .     S
H45   C44    0.94924       .     S
C44   C46    1.39371       .     S
C46   C44    1.39371       .     S
C46   H47    0.95047       .     S
H47   C46    0.95047       .     S
C48   H49    0.94887       .     S
H49   C48    0.94887       .     S
C48   C51    1.38865       .     S
C51   C48    1.38865       .     S
C50   C53    1.35961       .     S
C53   C50    1.35961       .     S
C50   C55    1.41591       .     S
C55   C50    1.41591       .     S
C51   H52    0.94977       .     S
H52   C51    0.94977       .     S
C53   H54    0.95064       .     S
H54   C53    0.95064       .     S
C53   C61    1.37018   1_556     S
C61   C53    1.37018   1_554     S
C55   H56    0.95054       .     S
H56   C55    0.95054       .     S
C55   C63    1.42858       .     S
C63   C55    1.42858       .     S
N57   H58    0.88024       .     S
H58   N57    0.88024       .     S
N57   H59    0.87844       .     S
H59   N57    0.87844       .     S
N57   C68    1.11761       .     S
C68   N57    1.11761       .     S
C60   C61    1.41190   1_556     S
C61   C60    1.41190   1_554     S
C60   C63    1.29270       .     S
C63   C60    1.29270       .     S
C60   C68    1.47741   1_556     S
C68   C60    1.47741   1_554     S
C61   H62    0.94998       .     S
H62   C61    0.94998       .     S
C63   H64    0.94913       .     S
H64   C63    0.94913       .     S
N65   H66    0.88083       .     S
H66   N65    0.88083       .     S
N65   H67    0.88072       .     S
H67   N65    0.88072       .     S
N65   C68    1.38167       .     S
C68   N65    1.38167       .     S
O69   C74    1.25574       .     S
C74   O69    1.25574       .     S
O70   C74    1.24951       .     S
C74   O70    1.24951       .     S
C71   C72    1.33922       .     S
C72   C71    1.33922       .     S
C71   C74    1.50154       .     S
C74   C71    1.50154       .     S
C71   C83    1.39923       .     S
C83   C71    1.39923       .     S
C72   H73    0.95014       .     S
H73   C72    0.95014       .     S
C72   C81    1.41423       .     S
C81   C72    1.41423       .     S
O75   C80    1.24951       .     S
C80   O75    1.24951       .     S
O76   C80    1.25574   1_455     S
C80   O76    1.25574   1_655     S
C77   C78    1.33922       .     S
C78   C77    1.33922       .     S
C77   C80    1.50153       .     S
C80   C77    1.50153       .     S
C77   C81    1.39923       .     S
C81   C77    1.39923       .     S
C78   H79    0.95014       .     S
H79   C78    0.95014       .     S
C78   C83    1.41422       .     S
C83   C78    1.41422       .     S
C81   H82    0.94908       .     S
H82   C81    0.94908       .     S
C83   H84    0.94908       .     S
H84   C83    0.94908       .     S
C83   N85    1.32174       .     S
N85   C83    1.32174       .     S
H84   N85    0.38811       .     S
N85   H84    0.38811       .     S
N85   H86    0.88013       .     S
H86   N85    0.88013       .     S
N85   H87    0.88075       .     S
H87   N85    0.88075       .     S
C88   C90    1.39532       .     S
C90   C88    1.39532       .     S
C88   C101   1.39633   1_556     S
C101  C88    1.39633   1_554     S
C88   H108   0.94563       .     S
H108  C88    0.94563       .     S
C88   N109   1.29981       .     S
N109  C88    1.29981       .     S
C89   C90    1.49956       .     S
C90   C89    1.49956       .     S
C89   O91    1.24331       .     S
O91   C89    1.24331       .     S
C89   O92    1.25655       .     S
O92   C89    1.25655       .     S
C90   C93    1.38203   1_655     S
C93   C90    1.38203   1_455     S
C93   H94    0.94718       .     S
H94   C93    0.94718       .     S
C93   C97    1.39633   1_556     S
C97   C93    1.39633   1_554     S
C93   N105   1.28852       .     S
N105  C93    1.28852       .     S
H94   N105   0.34732       .     S
N105  H94    0.34732       .     S
C95   C96    1.49956       .     S
C96   C95    1.49956       .     S
C95   O99    1.24331       .     S
O99   C95    1.24331       .     S
C95   O100   1.25655       .     S
O100  C95    1.25655       .     S
C96   C97    1.39532       .     S
C97   C96    1.39532       .     S
C96   C101   1.38203   1_455     S
C101  C96    1.38203   1_655     S
C97   H98    0.94551       .     S
H98   C97    0.94551       .     S
C101  N102   1.28853       .     S
N102  C101   1.28853       .     S
N102  H103   0.87676   1_655     S
H103  N102   0.87676   1_455     S
N102  H104   0.88349       .     S
H104  N102   0.88349       .     S
N105  H106   0.87676   1_455     S
H106  N105   0.87676   1_655     S
N105  H107   0.88349       .     S
H107  N105   0.88349       .     S
H108  N109   0.54700       .     S
N109  H108   0.54700       .     S
N109  H110   0.88427   1_556     S
H110  N109   0.88427   1_554     S
N109  H111   0.87582       .     S
H111  N109   0.87582       .     S
O99   H0     2.07135       .     S
H0    O99    2.07135       .     S
O100  H0     2.59158       .     S
H0    O100   2.59158       .     S
O70   H4     2.09657       .     S
H4    O70    2.09657       .     S
O70   H37    1.91608       .     S
H37   O70    1.91608       .     S
O69   H40    1.97958       .     S
H40   O69    1.97958       .     S
O70   H86    2.01074       .     S
H86   O70    2.01074       .     S
O100  H103   2.09008       .     S
H103  O100   2.09008       .     S
N109  H104   1.99797   1_556     S
H104  N109   1.99797   1_554     S
O92   H106   2.09008       .     S
H106  O92    2.09008       .     S
O91   H108   2.29236       .     S
H108  O91    2.29236       .     S
N102  H110   1.84947       .     S
H110  N102   1.84947       .     S
O91   H111   2.15916       .     S
H111  O91    2.15916       .     S
N24   H0     0.88034       .     S
H0    N24    0.88034       .     S
C10   C1     1.39130       .     S
C1    C10    1.39130       .     S
C16   C1     1.54185   1_455     S
C1    C16    1.54185   1_655     S
C18   C1     1.39928       .     S
C1    C18    1.39928       .     S
H3    N2     0.88091       .     S
N2    H3     0.88091       .     S
H4    N2     0.88025       .     S
N2    H4     0.88025       .     S
C9    N2     1.29272       .     S
N2    C9     1.29272       .     S
H6    N5     0.88004       .     S
N5    H6     0.88004       .     S
H7    N5     0.88041       .     S
N5    H7     0.88041       .     S
C9    N5     1.32381   1_556     S
N5    C9     1.32381   1_554     S
C9    C8     1.47807       .     S
C8    C9     1.47807       .     S
C12   C8     1.37688       .     S
C8    C12    1.37688       .     S
C14   C8     1.39366       .     S
C8    C14    1.39366       .     S
H11   C10    0.94924       .     S
C10   H11    0.94924       .     S
C12   C10    1.39371       .     S
C10   C12    1.39371       .     S
H13   C12    0.95047       .     S
C12   H13    0.95047       .     S
H15   C14    0.94887   1_554     S
C14   H15    0.94887   1_556     S
C18   C14    1.38865       .     S
C14   C18    1.38865       .     S
C17   C16    1.54148   1_655     S
C16   C17    1.54148   1_455     S
C35   C16    1.54185       .     S
C16   C35    1.54185       .     S
C50   C16    1.54148       .     S
C16   C50    1.54148       .     S
C20   C17    1.35960       .     S
C17   C20    1.35960       .     S
C22   C17    1.41591       .     S
C17   C22    1.41591       .     S
H19   C18    0.94977       .     S
C18   H19    0.94977       .     S
H21   C20    0.95065       .     S
C20   H21    0.95065       .     S
C27   C20    1.37018       .     S
C20   C27    1.37018       .     S
H23   C22    0.95054       .     S
C22   H23    0.95054       .     S
C29   C22    1.42858       .     S
C22   C29    1.42858       .     S
H25   N24    0.87844       .     S
N24   H25    0.87844       .     S
C34   N24    1.11761       .     S
N24   C34    1.11761       .     S
C27   C26    1.41190       .     S
C26   C27    1.41190       .     S
C29   C26    1.29270       .     S
C26   C29    1.29270       .     S
C34   C26    1.47741       .     S
C26   C34    1.47741       .     S
H28   C27    0.94998       .     S
C27   H28    0.94998       .     S
H30   C29    0.94913       .     S
C29   H30    0.94913       .     S
H32   N31    0.88083       .     S
N31   H32    0.88083       .     S
H33   N31    0.88071       .     S
N31   H33    0.88071       .     S
C34   N31    1.38167       .     S
N31   C34    1.38167       .     S
C44   C35    1.39130       .     S
C35   C44    1.39130       .     S
C51   C35    1.39928       .     S
C35   C51    1.39928       .     S
H37   N36    0.88091       .     S
N36   H37    0.88091       .     S
H38   N36    0.88025       .     S
N36   H38    0.88025       .     S
C43   N36    1.29273       .     S
N36   C43    1.29273       .     S
H40   N39    0.88001       .     S
N39   H40    0.88001       .     S
H41   N39    0.88041       .     S
N39   H41    0.88041       .     S
C43   N39    1.32381       .     S
N39   C43    1.32381       .     S
C43   C42    1.47807       .     S
C42   C43    1.47807       .     S
C46   C42    1.37688       .     S
C42   C46    1.37688       .     S
C48   C42    1.39366       .     S
C42   C48    1.39366       .     S
H45   C44    0.94924       .     S
C44   H45    0.94924       .     S
C46   C44    1.39371       .     S
C44   C46    1.39371       .     S
H47   C46    0.95047       .     S
C46   H47    0.95047       .     S
H49   C48    0.94887       .     S
C48   H49    0.94887       .     S
C51   C48    1.38865       .     S
C48   C51    1.38865       .     S
C53   C50    1.35961       .     S
C50   C53    1.35961       .     S
C55   C50    1.41591       .     S
C50   C55    1.41591       .     S
H52   C51    0.94977       .     S
C51   H52    0.94977       .     S
H54   C53    0.95064       .     S
C53   H54    0.95064       .     S
C61   C53    1.37018   1_554     S
C53   C61    1.37018   1_556     S
H56   C55    0.95054       .     S
C55   H56    0.95054       .     S
C63   C55    1.42858       .     S
C55   C63    1.42858       .     S
H58   N57    0.88024       .     S
N57   H58    0.88024       .     S
H59   N57    0.87844       .     S
N57   H59    0.87844       .     S
C68   N57    1.11761       .     S
N57   C68    1.11761       .     S
C61   C60    1.41190   1_554     S
C60   C61    1.41190   1_556     S
C63   C60    1.29270       .     S
C60   C63    1.29270       .     S
C68   C60    1.47741   1_554     S
C60   C68    1.47741   1_556     S
H62   C61    0.94998       .     S
C61   H62    0.94998       .     S
H64   C63    0.94913       .     S
C63   H64    0.94913       .     S
H66   N65    0.88083       .     S
N65   H66    0.88083       .     S
H67   N65    0.88072       .     S
N65   H67    0.88072       .     S
C68   N65    1.38167       .     S
N65   C68    1.38167       .     S
C74   O69    1.25574       .     S
O69   C74    1.25574       .     S
C74   O70    1.24951       .     S
O70   C74    1.24951       .     S
C72   C71    1.33922       .     S
C71   C72    1.33922       .     S
C74   C71    1.50154       .     S
C71   C74    1.50154       .     S
C83   C71    1.39923       .     S
C71   C83    1.39923       .     S
H73   C72    0.95014       .     S
C72   H73    0.95014       .     S
C81   C72    1.41423       .     S
C72   C81    1.41423       .     S
C80   O75    1.24951       .     S
O75   C80    1.24951       .     S
C80   O76    1.25574   1_655     S
O76   C80    1.25574   1_455     S
C78   C77    1.33922       .     S
C77   C78    1.33922       .     S
C80   C77    1.50153       .     S
C77   C80    1.50153       .     S
C81   C77    1.39923       .     S
C77   C81    1.39923       .     S
H79   C78    0.95014       .     S
C78   H79    0.95014       .     S
C83   C78    1.41422       .     S
C78   C83    1.41422       .     S
H82   C81    0.94908       .     S
C81   H82    0.94908       .     S
H84   C83    0.94908       .     S
C83   H84    0.94908       .     S
N85   C83    1.32174       .     S
C83   N85    1.32174       .     S
N85   H84    0.38811       .     S
H84   N85    0.38811       .     S
H86   N85    0.88013       .     S
N85   H86    0.88013       .     S
H87   N85    0.88075       .     S
N85   H87    0.88075       .     S
C90   C88    1.39532       .     S
C88   C90    1.39532       .     S
C101  C88    1.39633   1_554     S
C88   C101   1.39633   1_556     S
H108  C88    0.94563       .     S
C88   H108   0.94563       .     S
N109  C88    1.29981       .     S
C88   N109   1.29981       .     S
C90   C89    1.49956       .     S
C89   C90    1.49956       .     S
O91   C89    1.24331       .     S
C89   O91    1.24331       .     S
O92   C89    1.25655       .     S
C89   O92    1.25655       .     S
C93   C90    1.38203   1_455     S
C90   C93    1.38203   1_655     S
H94   C93    0.94718       .     S
C93   H94    0.94718       .     S
C97   C93    1.39633   1_554     S
C93   C97    1.39633   1_556     S
N105  C93    1.28852       .     S
C93   N105   1.28852       .     S
N105  H94    0.34732       .     S
H94   N105   0.34732       .     S
C96   C95    1.49956       .     S
C95   C96    1.49956       .     S
O99   C95    1.24331       .     S
C95   O99    1.24331       .     S
O100  C95    1.25655       .     S
C95   O100   1.25655       .     S
C97   C96    1.39532       .     S
C96   C97    1.39532       .     S
C101  C96    1.38203   1_655     S
C96   C101   1.38203   1_455     S
H98   C97    0.94551       .     S
C97   H98    0.94551       .     S
N102  C101   1.28853       .     S
C101  N102   1.28853       .     S
H103  N102   0.87676   1_455     S
N102  H103   0.87676   1_655     S
H104  N102   0.88349       .     S
N102  H104   0.88349       .     S
H106  N105   0.87676   1_655     S
N105  H106   0.87676   1_455     S
H107  N105   0.88349       .     S
N105  H107   0.88349       .     S
N109  H108   0.54700       .     S
H108  N109   0.54700       .     S
H110  N109   0.88427   1_554     S
N109  H110   0.88427   1_556     S
H111  N109   0.87582       .     S
N109  H111   0.87582       .     S
