data_I
_chemical_name_common  '/data/user2/wty/HOF/MOFDiff/mofdiff/data/test/293-3_oxalate'
_cell_length_a  9.55800
_cell_length_b 17.63300
_cell_length_c 21.24800
_cell_angle_alpha 111.19000
_cell_angle_beta  92.81000
_cell_angle_gamma 93.88000
_space_group_name_H-M_alt      'P 1'


loop_
_space_group_symop_operation_xyz
  'x, y, z' 

loop_
_atom_site_label
_atom_site_fract_x
_atom_site_fract_y
_atom_site_fract_z
_atom_site_type_symbol
O0      0.0112   0.9768   0.8405     O
C1       0.133   0.9998   0.8662     C
C2      0.2164   0.0504   0.8342     C
O3      0.1853   0.9959   0.9199     O
O4      0.2923   0.1043   0.8731     O
O5      0.1901    0.026   0.7703     O
O6      0.7058   0.6327   0.8723     O
C7      0.6288   0.5257     0.91     C
C8       0.638   0.6175   0.9147     C
O9      0.5144   0.5072   0.9246     O
O10     0.7343   0.4904   0.8975     O
O11     0.5759    0.665   0.9598     O
H12    0.56131  0.70117  0.81341     H
C13     0.7742  0.63023   0.5806     C
C14     0.6531  0.68558  0.58276     C
C15     0.5189   0.6672  0.59786     C
H16    0.50149  0.62373  0.61365     H
C17     0.4094   0.7119   0.5901     C
H18    0.31795  0.69796  0.60059     H
C19     0.4297  0.77656  0.56733     C
C20     0.5658  0.79667  0.55438     C
H21    0.58389  0.84137  0.54011     H
C22     0.6746   0.7526  0.56199     C
H23     0.7666  0.76769  0.55299     H
C24     0.3059  0.81786  0.55529     C
C25     0.1992   0.8305   0.5988     C
H26    0.20944  0.81675  0.63799     H
C27     0.0778   0.8628    0.586     C
H28    0.00512  0.87047  0.61604     H
C29     0.0615   0.8842   0.5289     C
C30     0.1679    0.872   0.4852     C
H31    0.15775  0.88632   0.4463     H
C32     0.2888   0.8393   0.4979     C
H33      0.361  0.83113  0.46752     H
C34     0.9279    0.916    0.515     C
C35     0.8062  0.60017  0.50529     C
C36      0.934   0.6204  0.48322     C
H37    0.00961  0.64989  0.51531     H
C38     0.9503   0.5973  0.41407     C
H39    0.03803  0.61102  0.39986     H
C40     0.8425    0.555  0.36552     C
C41     0.7145   0.5351  0.38771     C
H42    0.63898  0.50577  0.35551     H
C43     0.6971    0.558  0.45616     C
H44    0.60888  0.54466  0.47014     H
C45      0.857   0.5289  0.29132     C
C46     0.9782   0.4968   0.2639     C
H47     0.0555  0.49461  0.29283     H
C48     0.9874    0.468   0.1944     C
H49    0.06873  0.44325  0.17569     H
C50      0.877   0.4753   0.1518     C
C51     0.7591   0.5103   0.1801     C
H52    0.68412   0.5164   0.1517     H
C53     0.7491   0.5365   0.2488     C
H54    0.66693  0.56019  0.26739     H
C55     0.8846   0.4409   0.0768     C
C56     0.7257  0.55902  0.60356     C
C57     0.7166   0.4772  0.56198     C
H58    0.74253  0.46223  0.51677     H
C59     0.6695  0.41612  0.58609     C
H60    0.66079  0.36052  0.55643     H
C61     0.6357   0.4358  0.65228     C
C62     0.6513   0.5181  0.69545     C
H63    0.63126  0.53278  0.74148     H
C64     0.6962   0.5785   0.6711     C
H65    0.70688    0.634  0.70101     H
C66     0.5756   0.3719   0.6764     C
C67     0.4811   0.3075  0.63265     C
H68    0.45859  0.30435  0.58768     H
C69     0.4219   0.2498   0.6543     C
H70     0.3586   0.2066  0.62414     H
C71     0.4531   0.2532   0.7206     C
C72     0.5458    0.317   0.7637     C
H73    0.56727  0.32064   0.8089     H
C74     0.6079   0.3758   0.7416     C
H75    0.67225  0.41863  0.77143     H
C76     0.3849   0.1929   0.7452     C
C77     0.9025    0.674  0.62922     C
C78     0.0174   0.6299   0.6308     C
H79    0.01822   0.5763  0.59812     H
C80       0.13   0.6619   0.6787     C
H81    0.20653     0.63  0.67798     H
C82     0.1338   0.7401   0.7281     C
C83     0.0188   0.7844    0.726     C
H84    0.01783  0.83808  0.75853     H
C85     0.9066   0.7522    0.678     C
H86    0.83041  0.78422  0.67824     H
C87     0.2815   0.7619    0.757     C
C88     0.3649   0.7089   0.7756     C
H89     0.3282  0.65494  0.76909     H
C90      0.502   0.7374   0.8038     C
C91     0.5529   0.8181   0.8181     C
C92       0.47   0.8694   0.8034     C
H93     0.5048   0.9243   0.8123     H
C94     0.3295   0.8407   0.7745     C
H95    0.26901  0.87794  0.76749     H
C96     0.7035   0.8442    0.844     C
N97      0.849   0.9485   0.5655     N
H98    0.76841  0.96625  0.55806     H
H99    0.87709  0.95227  0.60673     H
N100    0.8867   0.9105   0.4545     N
H101   0.80607  0.92829  0.44708     H
H102   0.93924  0.88889  0.42081     H
N103    0.0029   0.4321   0.0518     N
H104   0.00701   0.4128  0.00763     H
H105   0.08083  0.44518  0.07872     H
N106    0.7644   0.4219    0.038     N
H107   0.76546  0.40248  0.99366     H
H108   0.68374  0.42864  0.05673     H
N109    0.3642   0.2126   0.8081     N
H110   0.32551  0.17598  0.82271     H
H111   0.38872  0.26273  0.83661     H
N112    0.3483   0.1172   0.7012     N
H113   0.30952  0.08004  0.71527     H
H114   0.36295  0.10433  0.65817     H
N115    0.7518   0.9102   0.8337     N
H116   0.84256  0.92562  0.84007     H
H117   0.69327  0.93889  0.82039     H
N118    0.7742   0.7948   0.8636     N
H119   0.86623  0.80397  0.87161     H
H120   0.72993  0.75231  0.86881     H
C121    0.2297   0.7795   0.7925     C
C122    0.3001    0.728    0.819     C
H123   0.27784  0.67062  0.79883     H
C124     0.402   0.7593   0.8742     C
H125   0.45051   0.7227  0.88879     H
C126    0.4317    0.843   0.9077     C
C127    0.3633   0.8928   0.8807     C
H128   0.38522  0.95028  0.90093     H
C129    0.2657   0.8627   0.8264     C
H130   0.22069  0.90011  0.81126     H
C131    0.5353   0.8746   0.9668     C
N132    0.5845   0.8304   0.9965     N
H133   0.65213  0.85105  0.02917     H
H134   0.55102  0.77898  0.98442     H
N135     0.593   0.9501    0.989     N
H136   0.66063  0.96624  0.02201     H
H137   0.56474  0.98466  0.97089     H
O138    0.6105  0.94395   0.4401     O
C139    0.4943   0.0194   0.5394     C
O140    0.5934    0.012  0.57618     O
O141    0.3895  0.05605   0.5599     O
C142    0.5057   0.9806   0.4606     C
O143    0.4066    0.988  0.42382     O
loop_
_geom_bond_atom_site_label_1
_geom_bond_atom_site_label_2
_geom_bond_distance
_geom_bond_site_symmetry_2
_ccdc_geom_bond_type
H98   O140   1.90219   1_565     S
O140  H98    1.90219   1_545     S
H101  O138   1.91433       .     S
O138  H101   1.91433       .     S
H110  O4     1.94987       .     S
O4    H110   1.94987       .     S
H113  O5     2.08978       .     S
O5    H113   2.08978       .     S
H114  O141   1.98625       .     S
O141  H114   1.98625       .     S
H116  O0     1.79118   1_655     S
O0    H116   1.79118   1_455     S
H120  O6     2.13444       .     S
O6    H120   2.13444       .     S
H134  O11    1.91999       .     S
O11   H134   1.91999       .     S
O0    C1     1.23759       .     S
C1    O0     1.23759       .     S
C1    C2     1.51303   1_565     S
C2    C1     1.51303   1_545     S
C1    O3     1.24980       .     S
O3    C1     1.24980       .     S
C2    O4     1.18015       .     S
O4    C2     1.18015       .     S
C2    O5     1.27333       .     S
O5    C2     1.27333       .     S
O6    C8     1.22952       .     S
C8    O6     1.22952       .     S
C7    C8     1.58144       .     S
C8    C7     1.58144       .     S
C7    O9     1.20681       .     S
O9    C7     1.20681       .     S
C7    O10    1.21098       .     S
O10   C7     1.21098       .     S
C8    O11    1.23083       .     S
O11   C8     1.23083       .     S
H12   C90    0.95034       .     S
C90   H12    0.95034       .     S
C13   C14    1.55567       .     S
C14   C13    1.55567       .     S
C13   C35    1.54656       .     S
C35   C13    1.54656       .     S
C13   C56    1.55428       .     S
C56   C13    1.55428       .     S
C13   C77    1.52905       .     S
C77   C13    1.52905       .     S
C14   C15    1.38294       .     S
C15   C14    1.38294       .     S
C14   C22    1.40947       .     S
C22   C14    1.40947       .     S
C15   H16    0.94969       .     S
H16   C15    0.94969       .     S
C15   C17    1.39014       .     S
C17   C15    1.39014       .     S
C17   H18    0.95066       .     S
H18   C17    0.95066       .     S
C17   C19    1.39632       .     S
C19   C17    1.39632       .     S
C19   C20    1.39171       .     S
C20   C19    1.39171       .     S
C19   C24    1.48915       .     S
C24   C19    1.48915       .     S
C20   H21    0.95003       .     S
H21   C20    0.95003       .     S
C20   C22    1.37664       .     S
C22   C20    1.37664       .     S
C22   H23    0.94985       .     S
H23   C22    0.94985       .     S
C24   C25    1.38517       .     S
C25   C24    1.38517       .     S
C24   C32    1.40667       .     S
C32   C24    1.40667       .     S
C25   H26    0.95023       .     S
H26   C25    0.95023       .     S
C25   C27    1.38392       .     S
C27   C25    1.38392       .     S
C27   H28    0.94977       .     S
H28   C27    0.94977       .     S
C27   C29    1.39966       .     S
C29   C27    1.39966       .     S
C29   C30    1.38581       .     S
C30   C29    1.38581       .     S
C29   C34    1.48724   1_455     S
C34   C29    1.48724   1_655     S
C30   H31    0.95010       .     S
H31   C30    0.95010       .     S
C30   C32    1.38300       .     S
C32   C30    1.38300       .     S
C32   H33    0.95056       .     S
H33   C32    0.95056       .     S
C34   N97    1.31977       .     S
N97   C34    1.31977       .     S
C34   N100   1.29308       .     S
N100  C34    1.29308       .     S
C35   C36    1.39906       .     S
C36   C35    1.39906       .     S
C35   C43    1.39901       .     S
C43   C35    1.39901       .     S
C36   H37    0.94978   1_655     S
H37   C36    0.94978   1_455     S
C36   C38    1.39549       .     S
C38   C36    1.39549       .     S
C38   H39    0.95026   1_655     S
H39   C38    0.95026   1_455     S
C38   C40    1.38480       .     S
C40   C38    1.38480       .     S
C40   C41    1.40009       .     S
C41   C40    1.40009       .     S
C40   C45    1.49070       .     S
C45   C40    1.49070       .     S
C41   H42    0.94966       .     S
H42   C41    0.94966       .     S
C41   C43    1.38358       .     S
C43   C41    1.38358       .     S
C43   H44    0.95015       .     S
H44   C43    0.95015       .     S
C45   C46    1.38502       .     S
C46   C45    1.38502       .     S
C45   C53    1.38300       .     S
C53   C45    1.38300       .     S
C46   H47    0.94959   1_655     S
H47   C46    0.94959   1_455     S
C46   C48    1.38672       .     S
C48   C46    1.38672       .     S
C48   H49    0.95056   1_655     S
H49   C48    0.95056   1_455     S
C48   C50    1.39940       .     S
C50   C48    1.39940       .     S
C50   C51    1.38008       .     S
C51   C50    1.38008       .     S
C50   C55    1.49375       .     S
C55   C50    1.49375       .     S
C51   H52    0.95093       .     S
H52   C51    0.95093       .     S
C51   C53    1.37315       .     S
C53   C51    1.37315       .     S
C53   H54    0.95020       .     S
H54   C53    0.95020       .     S
C55   N103   1.26799   1_655     S
N103  C55    1.26799   1_455     S
C55   N106   1.32936       .     S
N106  C55    1.32936       .     S
C56   C57    1.38694       .     S
C57   C56    1.38694       .     S
C56   C64    1.39764       .     S
C64   C56    1.39764       .     S
C57   H58    0.95015       .     S
H58   C57    0.95015       .     S
C57   C59    1.40746       .     S
C59   C57    1.40746       .     S
C59   H60    0.94996       .     S
H60   C59    0.94996       .     S
C59   C61    1.38191       .     S
C61   C59    1.38191       .     S
C61   C62    1.40164       .     S
C62   C61    1.40164       .     S
C61   C66    1.49028       .     S
C66   C61    1.49028       .     S
C62   H63    0.94991       .     S
H63   C62    0.94991       .     S
C62   C64    1.39443       .     S
C64   C62    1.39443       .     S
C64   H65    0.95002       .     S
H65   C64    0.95002       .     S
C66   C67    1.40898       .     S
C67   C66    1.40898       .     S
C66   C74    1.38044       .     S
C74   C66    1.38044       .     S
C67   H68    0.94987       .     S
H68   C67    0.94987       .     S
C67   C69    1.36121       .     S
C69   C67    1.36121       .     S
C69   H70    0.95063       .     S
H70   C69    0.95063       .     S
C69   C71    1.40443       .     S
C71   C69    1.40443       .     S
C71   C72    1.38927       .     S
C72   C71    1.38927       .     S
C71   C76    1.47311       .     S
C76   C71    1.47311       .     S
C72   H73    0.95024       .     S
H73   C72    0.95024       .     S
C72   C74    1.39421       .     S
C74   C72    1.39421       .     S
C74   H75    0.95040       .     S
H75   C74    0.95040       .     S
C76   N109   1.28283       .     S
N109  C76    1.28283       .     S
C76   N112   1.33445       .     S
N112  C76    1.33445       .     S
C77   C78    1.39381   1_655     S
C78   C77    1.39381   1_455     S
C77   C85    1.39021       .     S
C85   C77    1.39021       .     S
C78   H79    0.95005       .     S
H79   C78    0.95005       .     S
C78   C80    1.38122       .     S
C80   C78    1.38122       .     S
C80   H81    0.94987       .     S
H81   C80    0.94987       .     S
C80   C82    1.39557       .     S
C82   C80    1.39557       .     S
C82   C83    1.39890       .     S
C83   C82    1.39890       .     S
C82   C87    1.47943       .     S
C87   C82    1.47943       .     S
C82   C121   1.51620       .     S
C121  C82    1.51620       .     S
C83   H84    0.95006       .     S
H84   C83    0.95006       .     S
C83   C85    1.37999   1_455     S
C85   C83    1.37999   1_655     S
C85   H86    0.95029       .     S
H86   C85    0.95029       .     S
C87   C88    1.41490       .     S
C88   C87    1.41490       .     S
C87   C94    1.34272       .     S
C94   C87    1.34272       .     S
C87   C121   0.89364       .     S
C121  C87    0.89364       .     S
C87   C122   1.63863       .     S
C122  C87    1.63863       .     S
C88   H89    0.94995       .     S
H89   C88    0.94995       .     S
C88   C90    1.39461       .     S
C90   C88    1.39461       .     S
C88   C122   1.09869       .     S
C122  C88    1.09869       .     S
C88   H123   1.26364       .     S
H123  C88    1.26364       .     S
C90   C91    1.39037       .     S
C91   C90    1.39037       .     S
C90   C124   1.75294       .     S
C124  C90    1.75294       .     S
C91   C92    1.34931       .     S
C92   C91    1.34931       .     S
C91   C96    1.49540       .     S
C96   C91    1.49540       .     S
C92   H93    0.94944       .     S
H93   C92    0.94944       .     S
C92   C94    1.42796       .     S
C94   C92    1.42796       .     S
C94   H95    0.94937       .     S
H95   C94    0.94937       .     S
C94   C121   1.55421       .     S
C121  C94    1.55421       .     S
C94   C129   1.23577       .     S
C129  C94    1.23577       .     S
C96   N115   1.31785       .     S
N115  C96    1.31785       .     S
C96   N118   1.30505       .     S
N118  C96    1.30505       .     S
N97   H98    0.87905       .     S
H98   N97    0.87905       .     S
N97   H99    0.88113       .     S
H99   N97    0.88113       .     S
N100  H101   0.87962       .     S
H101  N100   0.87962       .     S
N100  H102   0.87964       .     S
H102  N100   0.87964       .     S
N103  H104   0.87904       .     S
H104  N103   0.87904       .     S
N103  H105   0.88022       .     S
H105  N103   0.88022       .     S
N106  H107   0.87930   1_554     S
H107  N106   0.87930   1_556     S
N106  H108   0.88043       .     S
H108  N106   0.88043       .     S
N109  H110   0.87973       .     S
H110  N109   0.87973       .     S
N109  H111   0.87988       .     S
H111  N109   0.87988       .     S
N112  H113   0.88075       .     S
H113  N112   0.88075       .     S
N112  H114   0.87972       .     S
H114  N112   0.87972       .     S
N115  H116   0.88019       .     S
H116  N115   0.88019       .     S
N115  H117   0.88039       .     S
H117  N115   0.88039       .     S
N118  H119   0.88036       .     S
H119  N118   0.88036       .     S
N118  H120   0.87993       .     S
H120  N118   0.87993       .     S
C121  C122   1.41763       .     S
C122  C121   1.41763       .     S
C121  C129   1.39031       .     S
C129  C121   1.39031       .     S
C122  H123   0.94926       .     S
H123  C122   0.94926       .     S
C122  C124   1.40576       .     S
C124  C122   1.40576       .     S
C124  H125   0.94796       .     S
H125  C124   0.94796       .     S
C124  C126   1.38907       .     S
C126  C124   1.38907       .     S
C126  C127   1.39023       .     S
C127  C126   1.39023       .     S
C126  C131   1.47156       .     S
C131  C126   1.47156       .     S
C127  H128   0.95048       .     S
H128  C127   0.95048       .     S
C127  C129   1.36670       .     S
C129  C127   1.36670       .     S
C129  H130   0.94971       .     S
H130  C129   0.94971       .     S
C131  N132   1.26605       .     S
N132  C131   1.26605       .     S
C131  N135   1.31154       .     S
N135  C131   1.31154       .     S
N132  H133   0.87962   1_556     S
H133  N132   0.87962   1_554     S
N132  H134   0.88023       .     S
H134  N132   0.88023       .     S
N135  H136   0.88155   1_556     S
H136  N135   0.88155   1_554     S
N135  H137   0.87978       .     S
H137  N135   0.87978       .     S
O138  C142   1.24001       .     S
C142  O138   1.24001       .     S
C139  O140   1.24210       .     S
O140  C139   1.24210       .     S
C139  O141   1.24001       .     S
O141  C139   1.24001       .     S
C139  C142   1.57583   1_545     S
C142  C139   1.57583   1_565     S
C142  O143   1.24210       .     S
O143  C142   1.24210       .     S
O140  H98    1.90219   1_545     S
H98   O140   1.90219   1_565     S
O138  H101   1.91433       .     S
H101  O138   1.91433       .     S
O4    H110   1.94987       .     S
H110  O4     1.94987       .     S
O5    H113   2.08978       .     S
H113  O5     2.08978       .     S
O141  H114   1.98625       .     S
H114  O141   1.98625       .     S
O0    H116   1.79118   1_455     S
H116  O0     1.79118   1_655     S
O6    H120   2.13444       .     S
H120  O6     2.13444       .     S
O11   H134   1.91999       .     S
H134  O11    1.91999       .     S
C1    O0     1.23759       .     S
O0    C1     1.23759       .     S
C2    C1     1.51303   1_545     S
C1    C2     1.51303   1_565     S
O3    C1     1.24980       .     S
C1    O3     1.24980       .     S
O4    C2     1.18015       .     S
C2    O4     1.18015       .     S
O5    C2     1.27333       .     S
C2    O5     1.27333       .     S
C8    O6     1.22952       .     S
O6    C8     1.22952       .     S
C8    C7     1.58144       .     S
C7    C8     1.58144       .     S
O9    C7     1.20681       .     S
C7    O9     1.20681       .     S
O10   C7     1.21098       .     S
C7    O10    1.21098       .     S
O11   C8     1.23083       .     S
C8    O11    1.23083       .     S
C90   H12    0.95034       .     S
H12   C90    0.95034       .     S
C14   C13    1.55567       .     S
C13   C14    1.55567       .     S
C35   C13    1.54656       .     S
C13   C35    1.54656       .     S
C56   C13    1.55428       .     S
C13   C56    1.55428       .     S
C77   C13    1.52905       .     S
C13   C77    1.52905       .     S
C15   C14    1.38294       .     S
C14   C15    1.38294       .     S
C22   C14    1.40947       .     S
C14   C22    1.40947       .     S
H16   C15    0.94969       .     S
C15   H16    0.94969       .     S
C17   C15    1.39014       .     S
C15   C17    1.39014       .     S
H18   C17    0.95066       .     S
C17   H18    0.95066       .     S
C19   C17    1.39632       .     S
C17   C19    1.39632       .     S
C20   C19    1.39171       .     S
C19   C20    1.39171       .     S
C24   C19    1.48915       .     S
C19   C24    1.48915       .     S
H21   C20    0.95003       .     S
C20   H21    0.95003       .     S
C22   C20    1.37664       .     S
C20   C22    1.37664       .     S
H23   C22    0.94985       .     S
C22   H23    0.94985       .     S
C25   C24    1.38517       .     S
C24   C25    1.38517       .     S
C32   C24    1.40667       .     S
C24   C32    1.40667       .     S
H26   C25    0.95023       .     S
C25   H26    0.95023       .     S
C27   C25    1.38392       .     S
C25   C27    1.38392       .     S
H28   C27    0.94977       .     S
C27   H28    0.94977       .     S
C29   C27    1.39966       .     S
C27   C29    1.39966       .     S
C30   C29    1.38581       .     S
C29   C30    1.38581       .     S
C34   C29    1.48724   1_655     S
C29   C34    1.48724   1_455     S
H31   C30    0.95010       .     S
C30   H31    0.95010       .     S
C32   C30    1.38300       .     S
C30   C32    1.38300       .     S
H33   C32    0.95056       .     S
C32   H33    0.95056       .     S
N97   C34    1.31977       .     S
C34   N97    1.31977       .     S
N100  C34    1.29308       .     S
C34   N100   1.29308       .     S
C36   C35    1.39906       .     S
C35   C36    1.39906       .     S
C43   C35    1.39901       .     S
C35   C43    1.39901       .     S
H37   C36    0.94978   1_455     S
C36   H37    0.94978   1_655     S
C38   C36    1.39549       .     S
C36   C38    1.39549       .     S
H39   C38    0.95026   1_455     S
C38   H39    0.95026   1_655     S
C40   C38    1.38480       .     S
C38   C40    1.38480       .     S
C41   C40    1.40009       .     S
C40   C41    1.40009       .     S
C45   C40    1.49070       .     S
C40   C45    1.49070       .     S
H42   C41    0.94966       .     S
C41   H42    0.94966       .     S
C43   C41    1.38358       .     S
C41   C43    1.38358       .     S
H44   C43    0.95015       .     S
C43   H44    0.95015       .     S
C46   C45    1.38502       .     S
C45   C46    1.38502       .     S
C53   C45    1.38300       .     S
C45   C53    1.38300       .     S
H47   C46    0.94959   1_455     S
C46   H47    0.94959   1_655     S
C48   C46    1.38672       .     S
C46   C48    1.38672       .     S
H49   C48    0.95056   1_455     S
C48   H49    0.95056   1_655     S
C50   C48    1.39940       .     S
C48   C50    1.39940       .     S
C51   C50    1.38008       .     S
C50   C51    1.38008       .     S
C55   C50    1.49375       .     S
C50   C55    1.49375       .     S
H52   C51    0.95093       .     S
C51   H52    0.95093       .     S
C53   C51    1.37315       .     S
C51   C53    1.37315       .     S
H54   C53    0.95020       .     S
C53   H54    0.95020       .     S
N103  C55    1.26799   1_455     S
C55   N103   1.26799   1_655     S
N106  C55    1.32936       .     S
C55   N106   1.32936       .     S
C57   C56    1.38694       .     S
C56   C57    1.38694       .     S
C64   C56    1.39764       .     S
C56   C64    1.39764       .     S
H58   C57    0.95015       .     S
C57   H58    0.95015       .     S
C59   C57    1.40746       .     S
C57   C59    1.40746       .     S
H60   C59    0.94996       .     S
C59   H60    0.94996       .     S
C61   C59    1.38191       .     S
C59   C61    1.38191       .     S
C62   C61    1.40164       .     S
C61   C62    1.40164       .     S
C66   C61    1.49028       .     S
C61   C66    1.49028       .     S
H63   C62    0.94991       .     S
C62   H63    0.94991       .     S
C64   C62    1.39443       .     S
C62   C64    1.39443       .     S
H65   C64    0.95002       .     S
C64   H65    0.95002       .     S
C67   C66    1.40898       .     S
C66   C67    1.40898       .     S
C74   C66    1.38044       .     S
C66   C74    1.38044       .     S
H68   C67    0.94987       .     S
C67   H68    0.94987       .     S
C69   C67    1.36121       .     S
C67   C69    1.36121       .     S
H70   C69    0.95063       .     S
C69   H70    0.95063       .     S
C71   C69    1.40443       .     S
C69   C71    1.40443       .     S
C72   C71    1.38927       .     S
C71   C72    1.38927       .     S
C76   C71    1.47311       .     S
C71   C76    1.47311       .     S
H73   C72    0.95024       .     S
C72   H73    0.95024       .     S
C74   C72    1.39421       .     S
C72   C74    1.39421       .     S
H75   C74    0.95040       .     S
C74   H75    0.95040       .     S
N109  C76    1.28283       .     S
C76   N109   1.28283       .     S
N112  C76    1.33445       .     S
C76   N112   1.33445       .     S
C78   C77    1.39381   1_455     S
C77   C78    1.39381   1_655     S
C85   C77    1.39021       .     S
C77   C85    1.39021       .     S
H79   C78    0.95005       .     S
C78   H79    0.95005       .     S
C80   C78    1.38122       .     S
C78   C80    1.38122       .     S
H81   C80    0.94987       .     S
C80   H81    0.94987       .     S
C82   C80    1.39557       .     S
C80   C82    1.39557       .     S
C83   C82    1.39890       .     S
C82   C83    1.39890       .     S
C87   C82    1.47943       .     S
C82   C87    1.47943       .     S
C121  C82    1.51620       .     S
C82   C121   1.51620       .     S
H84   C83    0.95006       .     S
C83   H84    0.95006       .     S
C85   C83    1.37999   1_655     S
C83   C85    1.37999   1_455     S
H86   C85    0.95029       .     S
C85   H86    0.95029       .     S
C88   C87    1.41490       .     S
C87   C88    1.41490       .     S
C94   C87    1.34272       .     S
C87   C94    1.34272       .     S
C121  C87    0.89364       .     S
C87   C121   0.89364       .     S
C122  C87    1.63863       .     S
C87   C122   1.63863       .     S
H89   C88    0.94995       .     S
C88   H89    0.94995       .     S
C90   C88    1.39461       .     S
C88   C90    1.39461       .     S
C122  C88    1.09869       .     S
C88   C122   1.09869       .     S
H123  C88    1.26364       .     S
C88   H123   1.26364       .     S
C91   C90    1.39037       .     S
C90   C91    1.39037       .     S
C124  C90    1.75294       .     S
C90   C124   1.75294       .     S
C92   C91    1.34931       .     S
C91   C92    1.34931       .     S
C96   C91    1.49540       .     S
C91   C96    1.49540       .     S
H93   C92    0.94944       .     S
C92   H93    0.94944       .     S
C94   C92    1.42796       .     S
C92   C94    1.42796       .     S
H95   C94    0.94937       .     S
C94   H95    0.94937       .     S
C121  C94    1.55421       .     S
C94   C121   1.55421       .     S
C129  C94    1.23577       .     S
C94   C129   1.23577       .     S
N115  C96    1.31785       .     S
C96   N115   1.31785       .     S
N118  C96    1.30505       .     S
C96   N118   1.30505       .     S
H98   N97    0.87905       .     S
N97   H98    0.87905       .     S
H99   N97    0.88113       .     S
N97   H99    0.88113       .     S
H101  N100   0.87962       .     S
N100  H101   0.87962       .     S
H102  N100   0.87964       .     S
N100  H102   0.87964       .     S
H104  N103   0.87904       .     S
N103  H104   0.87904       .     S
H105  N103   0.88022       .     S
N103  H105   0.88022       .     S
H107  N106   0.87930   1_556     S
N106  H107   0.87930   1_554     S
H108  N106   0.88043       .     S
N106  H108   0.88043       .     S
H110  N109   0.87973       .     S
N109  H110   0.87973       .     S
H111  N109   0.87988       .     S
N109  H111   0.87988       .     S
H113  N112   0.88075       .     S
N112  H113   0.88075       .     S
H114  N112   0.87972       .     S
N112  H114   0.87972       .     S
H116  N115   0.88019       .     S
N115  H116   0.88019       .     S
H117  N115   0.88039       .     S
N115  H117   0.88039       .     S
H119  N118   0.88036       .     S
N118  H119   0.88036       .     S
H120  N118   0.87993       .     S
N118  H120   0.87993       .     S
C122  C121   1.41763       .     S
C121  C122   1.41763       .     S
C129  C121   1.39031       .     S
C121  C129   1.39031       .     S
H123  C122   0.94926       .     S
C122  H123   0.94926       .     S
C124  C122   1.40576       .     S
C122  C124   1.40576       .     S
H125  C124   0.94796       .     S
C124  H125   0.94796       .     S
C126  C124   1.38907       .     S
C124  C126   1.38907       .     S
C127  C126   1.39023       .     S
C126  C127   1.39023       .     S
C131  C126   1.47156       .     S
C126  C131   1.47156       .     S
H128  C127   0.95048       .     S
C127  H128   0.95048       .     S
C129  C127   1.36670       .     S
C127  C129   1.36670       .     S
H130  C129   0.94971       .     S
C129  H130   0.94971       .     S
N132  C131   1.26605       .     S
C131  N132   1.26605       .     S
N135  C131   1.31154       .     S
C131  N135   1.31154       .     S
H133  N132   0.87962   1_554     S
N132  H133   0.87962   1_556     S
H134  N132   0.88023       .     S
N132  H134   0.88023       .     S
H136  N135   0.88155   1_554     S
N135  H136   0.88155   1_556     S
H137  N135   0.87978       .     S
N135  H137   0.87978       .     S
C142  O138   1.24001       .     S
O138  C142   1.24001       .     S
O140  C139   1.24210       .     S
C139  O140   1.24210       .     S
O141  C139   1.24001       .     S
C139  O141   1.24001       .     S
C142  C139   1.57583   1_565     S
C139  C142   1.57583   1_545     S
O143  C142   1.24210       .     S
C142  O143   1.24210       .     S
