data_I
_chemical_name_common  '/data/user2/wty/HOF/MOFDiff/mofdiff/data/test/293-bbiphen_2d'
_cell_length_a 51.63000
_cell_length_b  7.35330
_cell_length_c 29.21500
_cell_angle_alpha 90.00000
_cell_angle_beta  127.62000
_cell_angle_gamma 90.00000
_space_group_name_H-M_alt      'P 1'


loop_
_space_group_symop_operation_xyz
  'x, y, z' 

loop_
_atom_site_label
_atom_site_fract_x
_atom_site_fract_y
_atom_site_fract_z
_atom_site_type_symbol
N0     0.52002   0.7035   0.5093     N
H1      0.5262  0.61379  0.53279     H
H2     0.50083  0.70332   0.4766     H
C3         0.5   0.8437     0.25     C
C4      0.4703   0.9719   0.2187     C
C5     0.41694   0.2185   0.1556     C
C6      0.5284   0.5932   0.3903     C
H7     0.54551   0.6035  0.42963     H
C8     0.50673   0.4483   0.3702     C
C9     0.50099   0.7127   0.2935     C
C10     0.4948   0.1325   0.3897     C
H11    0.47687  0.12348  0.35096     H
C12     0.4813   0.4437   0.3114     C
H13    0.46553  0.35278  0.29655     H
C14     0.5132   0.2955     0.41     C
C15     0.5301   0.9936   0.4831     C
C16      0.479    0.572   0.2749     C
H17    0.46177  0.56344   0.2356     H
C18     0.5248   0.7226   0.3522     C
H19    0.53914  0.82062  0.36713     H
C20     0.3406    0.613   0.0571     C
C21    0.41757   0.0839   0.1887     C
H22     0.4004  0.07557  0.19097     H
N23    0.56936   0.8359   0.5746     N
H24    0.57545   0.7459  0.59793     H
H25    0.58244   0.9256  0.58407     H
C26     0.3976   0.5294   0.1195     C
H27    0.41923  0.56354  0.13769     H
C28     0.5404   0.3006   0.4688     C
H29    0.55343  0.40436  0.48391     H
C30     0.4436   0.9567   0.2197     C
H31    0.44291   0.8637  0.24045     H
C32     0.4698    0.105    0.185     C
H33    0.48667  0.11499  0.18208     H
C34     0.3907    0.348   0.1245     C
C35     0.5026   0.9886   0.4253     C
H36     0.4894  0.88557  0.41083     H
C37     0.4425   0.2279   0.1544     C
H38    0.44258  0.31933  0.13248     H
C39     0.3152   0.7411   0.0228     C
N40     0.3199    0.881   0.9987     N
H41    0.30435  0.95753  0.97713     H
H42    0.33834  0.89381  0.00498     H
C43     0.3718    0.664   0.0865     C
H44    0.37699  0.78473  0.08593     H
C45     0.3587    0.304   0.0936     C
H46    0.35314  0.18379  0.09373     H
C47     0.5392   0.8364   0.5231     C
N48     0.2872   0.7227   0.0132     N
H49    0.27178   0.7996  0.99153     H
H50    0.28414  0.63365  0.02844     H
C51      0.548   0.1552   0.5038     C
H52    0.56557  0.16392  0.54285     H
C53     0.3323   0.4381   0.0598     C
H54    0.31059  0.40538  0.04082     H
N55    0.47998   0.7035   0.9907     N
H56     0.4738  0.61379  0.96721     H
H57    0.49917  0.70332   0.0234     H
C58     0.5297   0.9719   0.2813     C
C59    0.58306   0.2185   0.3444     C
C60     0.4716   0.5932   0.1097     C
H61    0.45449   0.6035  0.07037     H
C62    0.49327   0.4483   0.1298     C
C63    0.49901   0.7127   0.2065     C
C64     0.5052   0.1325   0.1103     C
H65    0.52313  0.12348  0.14905     H
C66     0.5187   0.4437   0.1886     C
H67    0.53447  0.35278  0.20345     H
C68     0.4868   0.2955     0.09     C
C69     0.4699   0.9936   0.0169     C
C70      0.521    0.572   0.2251     C
H71    0.53823  0.56344   0.2644     H
C72     0.4752   0.7226   0.1478     C
H73    0.46086  0.82062  0.13287     H
C74     0.6594    0.613   0.4429     C
C75    0.58243   0.0839   0.3113     C
H76     0.5996  0.07557  0.30903     H
N77    0.43064   0.8359   0.9254     N
H78    0.42455   0.7459  0.90207     H
H79    0.41756   0.9256  0.91593     H
C80     0.6024   0.5294   0.3805     C
H81    0.58077  0.56354  0.36231     H
C82     0.4596   0.3006   0.0312     C
H83    0.44657  0.40436  0.01609     H
C84     0.5564   0.9567   0.2803     C
H85    0.55709   0.8637  0.25955     H
C86     0.5302    0.105    0.315     C
H87    0.51334  0.11499  0.31793     H
C88     0.6093    0.348   0.3755     C
C89     0.4974   0.9886   0.0747     C
H90     0.5106  0.88557  0.08917     H
C91     0.5575   0.2279   0.3456     C
H92    0.55742  0.31933  0.36752     H
C93     0.6848   0.7411   0.4772     C
N94     0.6801    0.881   0.5013     N
H95    0.69565  0.95753  0.52287     H
H96    0.66166  0.89381  0.49502     H
C97     0.6282    0.664   0.4135     C
H98    0.62301  0.78473  0.41407     H
C99     0.6413    0.304   0.4064     C
H100   0.64686  0.18379  0.40627     H
C101    0.4608   0.8364   0.9769     C
N102    0.7128   0.7227   0.4868     N
H103   0.72822   0.7996  0.50847     H
H104   0.71586  0.63365  0.47156     H
C105     0.452   0.1552   0.9962     C
H106   0.43443  0.16392  0.95715     H
C107    0.6677   0.4381   0.4402     C
H108   0.68941  0.40538  0.45918     H
O109   0.45851   0.5848   0.4095     O
O110   0.42749   0.3632    0.344     O
O111   0.26347   0.5434   0.0623     O
C112      0.39   0.9636   0.2836     C
H113   0.39048  0.08418   0.2937     H
C114    0.4141   0.6727   0.3133     C
O115   0.22929    0.335   0.0506     O
C116    0.4358   0.5314   0.3601     C
C117   0.30899   0.9618   0.1414     C
H118   0.30619  0.83685  0.13535     H
C119    0.3669   0.9082   0.2302     C
C120    0.2855   0.2602   0.1105     C
C121   0.33901   0.0319   0.1875     C
C122    0.4135   0.8423   0.3246     C
H123   0.42964  0.88482   0.3617     H
C124    0.2572    0.389   0.0708     C
C125    0.3705   0.7373    0.214     C
H126   0.35708  0.70381  0.17529     H
C127    0.3937   0.6176   0.2553     C
H128    0.3959  0.50247  0.24483     H
C129    0.2833    0.079   0.1047     C
H130   0.26336   0.0292  0.07433     H
C131    0.3415     0.22   0.1929     C
H132   0.36108  0.27194  0.22356     H
C133    0.3162   0.3286   0.1549     C
H134   0.31925  0.45388  0.15845     H
loop_
_geom_bond_atom_site_label_1
_geom_bond_atom_site_label_2
_geom_bond_distance
_geom_bond_site_symmetry_2
_ccdc_geom_bond_type
H2    O109   2.03650       .     S
O109  H2     2.03650       .     S
H50   O111   1.96130       .     S
O111  H50    1.96130       .     S
N0    H1     0.86058       .     S
H1    N0     0.86058       .     S
N0    H2     0.85950       .     S
H2    N0     0.85950       .     S
N0    C47    1.26916       .     S
C47   N0     1.26916       .     S
C3    C4     1.53764       .     S
C4    C3     1.53764       .     S
C3    C9     1.57044       .     S
C9    C3     1.57044       .     S
C3    C58    1.53764       .     S
C58   C3     1.53764       .     S
C3    C63    1.57044       .     S
C63   C3     1.57044       .     S
C4    C30    1.40101       .     S
C30   C4     1.40101       .     S
C4    C32    1.37727   1_565     S
C32   C4     1.37727   1_545     S
C5    C21    1.37018       .     S
C21   C5     1.37018       .     S
C5    C34    1.43699       .     S
C34   C5     1.43699       .     S
C5    C37    1.34313       .     S
C37   C5     1.34313       .     S
C6    H7     0.93122       .     S
H7    C6     0.93122       .     S
C6    C8     1.38916       .     S
C8    C6     1.38916       .     S
C6    C18    1.38792       .     S
C18   C6     1.38792       .     S
C8    C12    1.38651       .     S
C12   C8     1.38651       .     S
C8    C14    1.50061       .     S
C14   C8     1.50061       .     S
C9    C16    1.37895       .     S
C16   C9     1.37895       .     S
C9    C18    1.37248       .     S
C18   C9     1.37248       .     S
C10   H11    0.92909       .     S
H11   C10    0.92909       .     S
C10   C14    1.41527       .     S
C14   C10    1.41527       .     S
C10   C35    1.36096   1_545     S
C35   C10    1.36096   1_565     S
C12   H13    0.93106       .     S
H13   C12    0.93106       .     S
C12   C16    1.37356       .     S
C16   C12    1.37356       .     S
C14   C28    1.40689       .     S
C28   C14    1.40689       .     S
C15   C35    1.39344       .     S
C35   C15    1.39344       .     S
C15   C47    1.50075       .     S
C47   C15    1.50075       .     S
C15   C51    1.39626   1_565     S
C51   C15    1.39626   1_545     S
C16   H17    0.93093       .     S
H17   C16    0.93093       .     S
C18   H19    0.92933       .     S
H19   C18    0.92933       .     S
C20   C39    1.41664       .     S
C39   C20    1.41664       .     S
C20   C43    1.33570       .     S
C43   C20    1.33570       .     S
C20   C53    1.37301       .     S
C53   C20    1.37301       .     S
C21   H22    0.93047       .     S
H22   C21    0.93047       .     S
C21   C30    1.41961   1_545     S
C30   C21    1.41961   1_565     S
N23   H24    0.86009       .     S
H24   N23    0.86009       .     S
N23   H25    0.85998       .     S
H25   N23    0.85998       .     S
N23   C47    1.35212       .     S
C47   N23    1.35212       .     S
C26   H27    0.93169       .     S
H27   C26    0.93169       .     S
C26   C34    1.41104       .     S
C34   C26    1.41104       .     S
C26   C43    1.45452       .     S
C43   C26    1.45452       .     S
C28   H29    0.93114       .     S
H29   C28    0.93114       .     S
C28   C51    1.36118       .     S
C51   C28    1.36118       .     S
C30   H31    0.92886       .     S
H31   C30    0.92886       .     S
C32   H33    0.92845       .     S
H33   C32    0.92845       .     S
C32   C37    1.43675       .     S
C37   C32    1.43675       .     S
C34   C45    1.35218       .     S
C45   C34    1.35218       .     S
C35   H36    0.93028       .     S
H36   C35    0.93028       .     S
C37   H38    0.93024       .     S
H38   C37    0.93024       .     S
C39   N40    1.34962   1_554     S
N40   C39    1.34962   1_556     S
C39   N48    1.30071       .     S
N48   C39    1.30071       .     S
N40   H41    0.86064       .     S
H41   N40    0.86064       .     S
N40   H42    0.85773   1_556     S
H42   N40    0.85773   1_554     S
C43   H44    0.93040       .     S
H44   C43    0.93040       .     S
C45   H46    0.93011       .     S
H46   C45    0.93011       .     S
C45   C53    1.47041       .     S
C53   C45    1.47041       .     S
N48   H49    0.85968   1_554     S
H49   N48    0.85968   1_556     S
N48   H50    0.85898       .     S
H50   N48    0.85898       .     S
C51   H52    0.93010       .     S
H52   C51    0.93010       .     S
C53   H54    0.92895       .     S
H54   C53    0.92895       .     S
N55   H56    0.86058       .     S
H56   N55    0.86058       .     S
N55   H57    0.85950   1_556     S
H57   N55    0.85950   1_554     S
N55   C101   1.26916       .     S
C101  N55    1.26916       .     S
C58   C84    1.40101       .     S
C84   C58    1.40101       .     S
C58   C86    1.37727   1_565     S
C86   C58    1.37727   1_545     S
C59   C75    1.37018       .     S
C75   C59    1.37018       .     S
C59   C88    1.43699       .     S
C88   C59    1.43699       .     S
C59   C91    1.34313       .     S
C91   C59    1.34313       .     S
C60   H61    0.93122       .     S
H61   C60    0.93122       .     S
C60   C62    1.38916       .     S
C62   C60    1.38916       .     S
C60   C72    1.38792       .     S
C72   C60    1.38792       .     S
C62   C66    1.38651       .     S
C66   C62    1.38651       .     S
C62   C68    1.50061       .     S
C68   C62    1.50061       .     S
C63   C70    1.37895       .     S
C70   C63    1.37895       .     S
C63   C72    1.37248       .     S
C72   C63    1.37248       .     S
C64   H65    0.92927       .     S
H65   C64    0.92927       .     S
C64   C68    1.41527       .     S
C68   C64    1.41527       .     S
C64   C89    1.36096   1_545     S
C89   C64    1.36096   1_565     S
C66   H67    0.93106       .     S
H67   C66    0.93106       .     S
C66   C70    1.37356       .     S
C70   C66    1.37356       .     S
C68   C82    1.40689       .     S
C82   C68    1.40689       .     S
C69   C89    1.39344       .     S
C89   C69    1.39344       .     S
C69   C101   1.50075   1_554     S
C101  C69    1.50075   1_556     S
C69   C105   1.39626   1_564     S
C105  C69    1.39626   1_546     S
C70   H71    0.93093       .     S
H71   C70    0.93093       .     S
C72   H73    0.92933       .     S
H73   C72    0.92933       .     S
C74   C93    1.41664       .     S
C93   C74    1.41664       .     S
C74   C97    1.33570       .     S
C97   C74    1.33570       .     S
C74   C107   1.37301       .     S
C107  C74    1.37301       .     S
C75   H76    0.93047       .     S
H76   C75    0.93047       .     S
C75   C84    1.41961   1_545     S
C84   C75    1.41961   1_565     S
N77   H78    0.86009       .     S
H78   N77    0.86009       .     S
N77   H79    0.85998       .     S
H79   N77    0.85998       .     S
N77   C101   1.35212       .     S
C101  N77    1.35212       .     S
C80   H81    0.93169       .     S
H81   C80    0.93169       .     S
C80   C88    1.41104       .     S
C88   C80    1.41104       .     S
C80   C97    1.45452       .     S
C97   C80    1.45452       .     S
C82   H83    0.93114       .     S
H83   C82    0.93114       .     S
C82   C105   1.36118   1_554     S
C105  C82    1.36118   1_556     S
C84   H85    0.92886       .     S
H85   C84    0.92886       .     S
C86   H87    0.92813       .     S
H87   C86    0.92813       .     S
C86   C91    1.43675       .     S
C91   C86    1.43675       .     S
C88   C99    1.35218       .     S
C99   C88    1.35218       .     S
C89   H90    0.93028       .     S
H90   C89    0.93028       .     S
C91   H92    0.93024       .     S
H92   C91    0.93024       .     S
C93   N94    1.34962       .     S
N94   C93    1.34962       .     S
C93   N102   1.30071       .     S
N102  C93    1.30071       .     S
N94   H95    0.86064       .     S
H95   N94    0.86064       .     S
N94   H96    0.85773       .     S
H96   N94    0.85773       .     S
C97   H98    0.93040       .     S
H98   C97    0.93040       .     S
C99   H100   0.93011       .     S
H100  C99    0.93011       .     S
C99   C107   1.47041       .     S
C107  C99    1.47041       .     S
N102  H103   0.85968       .     S
H103  N102   0.85968       .     S
N102  H104   0.85898       .     S
H104  N102   0.85898       .     S
C105  H106   0.93010       .     S
H106  C105   0.93010       .     S
C107  H108   0.92895       .     S
H108  C107   0.92895       .     S
O109  C116   1.24337       .     S
C116  O109   1.24337       .     S
O110  C116   1.29949       .     S
C116  O110   1.29949       .     S
O111  C124   1.24644       .     S
C124  O111   1.24644       .     S
C112  H113   0.93001   1_565     S
H113  C112   0.93001   1_545     S
C112  C119   1.32313       .     S
C119  C112   1.32313       .     S
C112  C122   1.38859       .     S
C122  C112   1.38859       .     S
C114  C116   1.52776       .     S
C116  C114   1.52776       .     S
C114  C122   1.29528       .     S
C122  C114   1.29528       .     S
C114  C127   1.40210       .     S
C127  C114   1.40210       .     S
O115  C124   1.24266       .     S
C124  O115   1.24266       .     S
C117  H118   0.93012       .     S
H118  C117   0.93012       .     S
C117  C121   1.39048   1_565     S
C121  C117   1.39048   1_545     S
C117  C129   1.38397   1_565     S
C129  C117   1.38397   1_545     S
C119  C121   1.50467   1_565     S
C121  C119   1.50467   1_545     S
C119  C125   1.39470       .     S
C125  C119   1.39470       .     S
C120  C124   1.51928       .     S
C124  C120   1.51928       .     S
C120  C129   1.33920       .     S
C129  C120   1.33920       .     S
C120  C133   1.39206       .     S
C133  C120   1.39206       .     S
C121  C131   1.38916       .     S
C131  C121   1.38916       .     S
C122  H123   0.92966       .     S
H123  C122   0.92966       .     S
C125  H126   0.92901       .     S
H126  C125   0.92901       .     S
C125  C127   1.37873       .     S
C127  C125   1.37873       .     S
C127  H128   0.93037       .     S
H128  C127   0.93037       .     S
C129  H130   0.93061       .     S
H130  C129   0.93061       .     S
C131  H132   0.92988       .     S
H132  C131   0.92988       .     S
C131  C133   1.34389       .     S
C133  C131   1.34389       .     S
C133  H134   0.92966       .     S
H134  C133   0.92966       .     S
O109  H2     2.03650       .     S
H2    O109   2.03650       .     S
O111  H50    1.96130       .     S
H50   O111   1.96130       .     S
H1    N0     0.86058       .     S
N0    H1     0.86058       .     S
H2    N0     0.85950       .     S
N0    H2     0.85950       .     S
C47   N0     1.26916       .     S
N0    C47    1.26916       .     S
C4    C3     1.53764       .     S
C3    C4     1.53764       .     S
C9    C3     1.57044       .     S
C3    C9     1.57044       .     S
C58   C3     1.53764       .     S
C3    C58    1.53764       .     S
C63   C3     1.57044       .     S
C3    C63    1.57044       .     S
C30   C4     1.40101       .     S
C4    C30    1.40101       .     S
C32   C4     1.37727   1_545     S
C4    C32    1.37727   1_565     S
C21   C5     1.37018       .     S
C5    C21    1.37018       .     S
C34   C5     1.43699       .     S
C5    C34    1.43699       .     S
C37   C5     1.34313       .     S
C5    C37    1.34313       .     S
H7    C6     0.93122       .     S
C6    H7     0.93122       .     S
C8    C6     1.38916       .     S
C6    C8     1.38916       .     S
C18   C6     1.38792       .     S
C6    C18    1.38792       .     S
C12   C8     1.38651       .     S
C8    C12    1.38651       .     S
C14   C8     1.50061       .     S
C8    C14    1.50061       .     S
C16   C9     1.37895       .     S
C9    C16    1.37895       .     S
C18   C9     1.37248       .     S
C9    C18    1.37248       .     S
H11   C10    0.92909       .     S
C10   H11    0.92909       .     S
C14   C10    1.41527       .     S
C10   C14    1.41527       .     S
C35   C10    1.36096   1_565     S
C10   C35    1.36096   1_545     S
H13   C12    0.93106       .     S
C12   H13    0.93106       .     S
C16   C12    1.37356       .     S
C12   C16    1.37356       .     S
C28   C14    1.40689       .     S
C14   C28    1.40689       .     S
C35   C15    1.39344       .     S
C15   C35    1.39344       .     S
C47   C15    1.50075       .     S
C15   C47    1.50075       .     S
C51   C15    1.39626   1_545     S
C15   C51    1.39626   1_565     S
H17   C16    0.93093       .     S
C16   H17    0.93093       .     S
H19   C18    0.92933       .     S
C18   H19    0.92933       .     S
C39   C20    1.41664       .     S
C20   C39    1.41664       .     S
C43   C20    1.33570       .     S
C20   C43    1.33570       .     S
C53   C20    1.37301       .     S
C20   C53    1.37301       .     S
H22   C21    0.93047       .     S
C21   H22    0.93047       .     S
C30   C21    1.41961   1_565     S
C21   C30    1.41961   1_545     S
H24   N23    0.86009       .     S
N23   H24    0.86009       .     S
H25   N23    0.85998       .     S
N23   H25    0.85998       .     S
C47   N23    1.35212       .     S
N23   C47    1.35212       .     S
H27   C26    0.93169       .     S
C26   H27    0.93169       .     S
C34   C26    1.41104       .     S
C26   C34    1.41104       .     S
C43   C26    1.45452       .     S
C26   C43    1.45452       .     S
H29   C28    0.93114       .     S
C28   H29    0.93114       .     S
C51   C28    1.36118       .     S
C28   C51    1.36118       .     S
H31   C30    0.92886       .     S
C30   H31    0.92886       .     S
H33   C32    0.92845       .     S
C32   H33    0.92845       .     S
C37   C32    1.43675       .     S
C32   C37    1.43675       .     S
C45   C34    1.35218       .     S
C34   C45    1.35218       .     S
H36   C35    0.93028       .     S
C35   H36    0.93028       .     S
H38   C37    0.93024       .     S
C37   H38    0.93024       .     S
N40   C39    1.34962   1_556     S
C39   N40    1.34962   1_554     S
N48   C39    1.30071       .     S
C39   N48    1.30071       .     S
H41   N40    0.86064       .     S
N40   H41    0.86064       .     S
H42   N40    0.85773   1_554     S
N40   H42    0.85773   1_556     S
H44   C43    0.93040       .     S
C43   H44    0.93040       .     S
H46   C45    0.93011       .     S
C45   H46    0.93011       .     S
C53   C45    1.47041       .     S
C45   C53    1.47041       .     S
H49   N48    0.85968   1_556     S
N48   H49    0.85968   1_554     S
H50   N48    0.85898       .     S
N48   H50    0.85898       .     S
H52   C51    0.93010       .     S
C51   H52    0.93010       .     S
H54   C53    0.92895       .     S
C53   H54    0.92895       .     S
H56   N55    0.86058       .     S
N55   H56    0.86058       .     S
H57   N55    0.85950   1_554     S
N55   H57    0.85950   1_556     S
C101  N55    1.26916       .     S
N55   C101   1.26916       .     S
C84   C58    1.40101       .     S
C58   C84    1.40101       .     S
C86   C58    1.37727   1_545     S
C58   C86    1.37727   1_565     S
C75   C59    1.37018       .     S
C59   C75    1.37018       .     S
C88   C59    1.43699       .     S
C59   C88    1.43699       .     S
C91   C59    1.34313       .     S
C59   C91    1.34313       .     S
H61   C60    0.93122       .     S
C60   H61    0.93122       .     S
C62   C60    1.38916       .     S
C60   C62    1.38916       .     S
C72   C60    1.38792       .     S
C60   C72    1.38792       .     S
C66   C62    1.38651       .     S
C62   C66    1.38651       .     S
C68   C62    1.50061       .     S
C62   C68    1.50061       .     S
C70   C63    1.37895       .     S
C63   C70    1.37895       .     S
C72   C63    1.37248       .     S
C63   C72    1.37248       .     S
H65   C64    0.92927       .     S
C64   H65    0.92927       .     S
C68   C64    1.41527       .     S
C64   C68    1.41527       .     S
C89   C64    1.36096   1_565     S
C64   C89    1.36096   1_545     S
H67   C66    0.93106       .     S
C66   H67    0.93106       .     S
C70   C66    1.37356       .     S
C66   C70    1.37356       .     S
C82   C68    1.40689       .     S
C68   C82    1.40689       .     S
C89   C69    1.39344       .     S
C69   C89    1.39344       .     S
C101  C69    1.50075   1_556     S
C69   C101   1.50075   1_554     S
C105  C69    1.39626   1_546     S
C69   C105   1.39626   1_564     S
H71   C70    0.93093       .     S
C70   H71    0.93093       .     S
H73   C72    0.92933       .     S
C72   H73    0.92933       .     S
C93   C74    1.41664       .     S
C74   C93    1.41664       .     S
C97   C74    1.33570       .     S
C74   C97    1.33570       .     S
C107  C74    1.37301       .     S
C74   C107   1.37301       .     S
H76   C75    0.93047       .     S
C75   H76    0.93047       .     S
C84   C75    1.41961   1_565     S
C75   C84    1.41961   1_545     S
H78   N77    0.86009       .     S
N77   H78    0.86009       .     S
H79   N77    0.85998       .     S
N77   H79    0.85998       .     S
C101  N77    1.35212       .     S
N77   C101   1.35212       .     S
H81   C80    0.93169       .     S
C80   H81    0.93169       .     S
C88   C80    1.41104       .     S
C80   C88    1.41104       .     S
C97   C80    1.45452       .     S
C80   C97    1.45452       .     S
H83   C82    0.93114       .     S
C82   H83    0.93114       .     S
C105  C82    1.36118   1_556     S
C82   C105   1.36118   1_554     S
H85   C84    0.92886       .     S
C84   H85    0.92886       .     S
H87   C86    0.92813       .     S
C86   H87    0.92813       .     S
C91   C86    1.43675       .     S
C86   C91    1.43675       .     S
C99   C88    1.35218       .     S
C88   C99    1.35218       .     S
H90   C89    0.93028       .     S
C89   H90    0.93028       .     S
H92   C91    0.93024       .     S
C91   H92    0.93024       .     S
N94   C93    1.34962       .     S
C93   N94    1.34962       .     S
N102  C93    1.30071       .     S
C93   N102   1.30071       .     S
H95   N94    0.86064       .     S
N94   H95    0.86064       .     S
H96   N94    0.85773       .     S
N94   H96    0.85773       .     S
H98   C97    0.93040       .     S
C97   H98    0.93040       .     S
H100  C99    0.93011       .     S
C99   H100   0.93011       .     S
C107  C99    1.47041       .     S
C99   C107   1.47041       .     S
H103  N102   0.85968       .     S
N102  H103   0.85968       .     S
H104  N102   0.85898       .     S
N102  H104   0.85898       .     S
H106  C105   0.93010       .     S
C105  H106   0.93010       .     S
H108  C107   0.92895       .     S
C107  H108   0.92895       .     S
C116  O109   1.24337       .     S
O109  C116   1.24337       .     S
C116  O110   1.29949       .     S
O110  C116   1.29949       .     S
C124  O111   1.24644       .     S
O111  C124   1.24644       .     S
H113  C112   0.93001   1_545     S
C112  H113   0.93001   1_565     S
C119  C112   1.32313       .     S
C112  C119   1.32313       .     S
C122  C112   1.38859       .     S
C112  C122   1.38859       .     S
C116  C114   1.52776       .     S
C114  C116   1.52776       .     S
C122  C114   1.29528       .     S
C114  C122   1.29528       .     S
C127  C114   1.40210       .     S
C114  C127   1.40210       .     S
C124  O115   1.24266       .     S
O115  C124   1.24266       .     S
H118  C117   0.93012       .     S
C117  H118   0.93012       .     S
C121  C117   1.39048   1_545     S
C117  C121   1.39048   1_565     S
C129  C117   1.38397   1_545     S
C117  C129   1.38397   1_565     S
C121  C119   1.50467   1_545     S
C119  C121   1.50467   1_565     S
C125  C119   1.39470       .     S
C119  C125   1.39470       .     S
C124  C120   1.51928       .     S
C120  C124   1.51928       .     S
C129  C120   1.33920       .     S
C120  C129   1.33920       .     S
C133  C120   1.39206       .     S
C120  C133   1.39206       .     S
C131  C121   1.38916       .     S
C121  C131   1.38916       .     S
H123  C122   0.92966       .     S
C122  H123   0.92966       .     S
H126  C125   0.92901       .     S
C125  H126   0.92901       .     S
C127  C125   1.37873       .     S
C125  C127   1.37873       .     S
H128  C127   0.93037       .     S
C127  H128   0.93037       .     S
H130  C129   0.93061       .     S
C129  H130   0.93061       .     S
H132  C131   0.92988       .     S
C131  H132   0.92988       .     S
C133  C131   1.34389       .     S
C131  C133   1.34389       .     S
H134  C133   0.92966       .     S
C133  H134   0.92966       .     S
