data_I
_chemical_name_common  '/data/user2/wty/HOF/MOFDiff/mofdiff/data/test/293-areverse'
_cell_length_a  8.49340
_cell_length_b 16.52700
_cell_length_c 20.59670
_cell_angle_alpha 90.00000
_cell_angle_beta  90.00000
_cell_angle_gamma 90.00000
_space_group_name_H-M_alt      'P 1'


loop_
_space_group_symop_operation_xyz
  'x, y, z' 

loop_
_atom_site_label
_atom_site_fract_x
_atom_site_fract_y
_atom_site_fract_z
_atom_site_type_symbol
O0      0.6866   0.3728  0.43875     O
O1      0.6782   0.4705   0.3655     O
C2      0.7405     0.41   0.3879     C
C3      0.8822    0.373    0.356     C
C4      0.9423   0.4049   0.2997     C
C5      0.0674   0.3686   0.2681     C
C6      0.1361   0.3003   0.2919     C
C7      0.0743   0.2709   0.3466     C
C8      0.9497   0.3078   0.3793     C
C9        0.25     0.25     0.25     C
H10     0.8966   0.4497   0.2809     H
H11     0.1056   0.3912   0.2301     H
H12     0.1139   0.2228   0.3619     H
H13     0.9218   0.2912   0.4202     H
O14     0.8134   0.3728  0.06125     O
O15     0.8218   0.4705   0.1345     O
C16     0.7595     0.41   0.1121     C
C17     0.6178    0.373    0.144     C
C18     0.5577   0.4049   0.2003     C
C19     0.4326   0.3686   0.2319     C
C20     0.3639   0.3003   0.2081     C
C21     0.4257   0.2709   0.1534     C
C22     0.5503   0.3078   0.1207     C
H23     0.6034   0.4497   0.2191     H
H24     0.3944   0.3912   0.2699     H
H25     0.3861   0.2228   0.1381     H
H26     0.5782   0.2912   0.0798     H
O27     0.8134   0.1272  0.43875     O
O28     0.8218   0.0295   0.3655     O
C29     0.7595     0.09   0.3879     C
C30     0.6178    0.127    0.356     C
C31     0.5577   0.0951   0.2997     C
C32     0.4326   0.1314   0.2681     C
C33     0.3639   0.1997   0.2919     C
C34     0.4257   0.2291   0.3466     C
C35     0.5503   0.1922   0.3793     C
H36     0.6034   0.0503   0.2809     H
H37     0.3944   0.1088   0.2301     H
H38     0.3861   0.2772   0.3619     H
H39     0.5782   0.2088   0.4202     H
O40     0.6866   0.1272  0.06125     O
O41     0.6782   0.0295   0.1345     O
C42     0.7405     0.09   0.1121     C
C43     0.8822    0.127    0.144     C
C44     0.9423   0.0951   0.2003     C
C45     0.0674   0.1314   0.2319     C
C46     0.1361   0.1997   0.2081     C
C47     0.0743   0.2291   0.1534     C
C48     0.9497   0.1922   0.1207     C
H49     0.8966   0.0503   0.2191     H
H50     0.1056   0.1088   0.2699     H
H51     0.1139   0.2772   0.1381     H
H52     0.9218   0.2088   0.0798     H
H53      0.452    0.492   0.3845     H
N54      0.396   0.4138   0.4819     N
N55     0.3553   0.4965   0.3954     N
C56     0.3051   0.4633   0.4495     C
C57     0.1478   0.4813   0.4748     C
C58     0.0712   0.4273   0.5133     C
C59     0.0784   0.5551    0.461     C
H60     0.1151   0.3776   0.5209     H
H61     0.1268    0.593   0.4342     H
H62      0.294    0.523   0.3724     H
H63      0.491    0.405   0.4692     H
H64      0.356    0.389    0.515     H
N65      0.604   0.5862   0.5181     N
N66     0.6447   0.5035   0.6046     N
C67     0.6949   0.5367   0.5505     C
C68     0.8522   0.5187   0.5252     C
C69     0.9288   0.5727   0.4867     C
C70     0.9216   0.4449    0.539     C
H71     0.8849   0.6224   0.4791     H
H72     0.8732    0.407   0.5658     H
H73      0.548    0.508   0.6155     H
H74      0.706    0.477   0.6276     H
H75      0.509    0.595   0.5308     H
H76      0.644    0.611    0.485     H
loop_
_geom_bond_atom_site_label_1
_geom_bond_atom_site_label_2
_geom_bond_distance
_geom_bond_site_symmetry_2
_ccdc_geom_bond_type
H53   O1     1.99260       .     S
O1    H53    1.99260       .     S
H63   O0     1.85378       .     S
O0    H63    1.85378       .     S
O0    C2     1.29788       .     S
C2    O0     1.29788       .     S
O1    C2     1.22173       .     S
C2    O1     1.22173       .     S
C2    C3     1.50136       .     S
C3    C2     1.50136       .     S
C3    C4     1.37229       .     S
C4    C3     1.37229       .     S
C3    C8     1.31153       .     S
C8    C3     1.31153       .     S
C4    C5     1.38293   1_655     S
C5    C4     1.38293   1_455     S
C4    H10    0.92130       .     S
H10   C4     0.92130       .     S
C5    C6     1.36196       .     S
C6    C5     1.36196       .     S
C5    H11    0.92593       .     S
H11   C5     0.92593       .     S
C6    C7     1.33451       .     S
C7    C6     1.33451       .     S
C6    C9     1.54003       .     S
C9    C6     1.54003       .     S
C7    C8     1.39481   1_455     S
C8    C7     1.39481   1_655     S
C7    H12    0.91890       .     S
H12   C7     0.91890       .     S
C8    H13    0.91710       .     S
H13   C8     0.91710       .     S
C9    C20    1.54003       .     S
C20   C9     1.54003       .     S
C9    C33    1.54003       .     S
C33   C9     1.54003       .     S
C9    C46    1.54003       .     S
C46   C9     1.54003       .     S
O14   C16    1.29788       .     S
C16   O14    1.29788       .     S
O15   C16    1.22173       .     S
C16   O15    1.22173       .     S
C16   C17    1.50136       .     S
C17   C16    1.50136       .     S
C17   C18    1.37229       .     S
C18   C17    1.37229       .     S
C17   C22    1.31153       .     S
C22   C17    1.31153       .     S
C18   C19    1.38293       .     S
C19   C18    1.38293       .     S
C18   H23    0.92131       .     S
H23   C18    0.92131       .     S
C19   C20    1.36196       .     S
C20   C19    1.36196       .     S
C19   H24    0.92593       .     S
H24   C19    0.92593       .     S
C20   C21    1.33451       .     S
C21   C20    1.33451       .     S
C21   C22    1.39481       .     S
C22   C21    1.39481       .     S
C21   H25    0.91890       .     S
H25   C21    0.91890       .     S
C22   H26    0.91710       .     S
H26   C22    0.91710       .     S
O27   C29    1.29788       .     S
C29   O27    1.29788       .     S
O28   C29    1.22173       .     S
C29   O28    1.22173       .     S
C29   C30    1.50136       .     S
C30   C29    1.50136       .     S
C30   C31    1.37229       .     S
C31   C30    1.37229       .     S
C30   C35    1.31153       .     S
C35   C30    1.31153       .     S
C31   C32    1.38293       .     S
C32   C31    1.38293       .     S
C31   H36    0.92131       .     S
H36   C31    0.92131       .     S
C32   C33    1.36196       .     S
C33   C32    1.36196       .     S
C32   H37    0.92593       .     S
H37   C32    0.92593       .     S
C33   C34    1.33451       .     S
C34   C33    1.33451       .     S
C34   C35    1.39481       .     S
C35   C34    1.39481       .     S
C34   H38    0.91890       .     S
H38   C34    0.91890       .     S
C35   H39    0.91710       .     S
H39   C35    0.91710       .     S
O40   C42    1.29788       .     S
C42   O40    1.29788       .     S
O41   C42    1.22173       .     S
C42   O41    1.22173       .     S
C42   C43    1.50136       .     S
C43   C42    1.50136       .     S
C43   C44    1.37229       .     S
C44   C43    1.37229       .     S
C43   C48    1.31153       .     S
C48   C43    1.31153       .     S
C44   C45    1.38293   1_655     S
C45   C44    1.38293   1_455     S
C44   H49    0.92131       .     S
H49   C44    0.92131       .     S
C45   C46    1.36196       .     S
C46   C45    1.36196       .     S
C45   H50    0.92593       .     S
H50   C45    0.92593       .     S
C46   C47    1.33451       .     S
C47   C46    1.33451       .     S
C47   C48    1.39481   1_455     S
C48   C47    1.39481   1_655     S
C47   H51    0.91890       .     S
H51   C47    0.91890       .     S
C48   H52    0.91710       .     S
H52   C48    0.91710       .     S
H53   N55    0.85468       .     S
N55   H53    0.85468       .     S
N54   C56    1.30792       .     S
C56   N54    1.30792       .     S
N54   H63    0.86059       .     S
H63   N54    0.86059       .     S
N54   H64    0.86498       .     S
H64   N54    0.86498       .     S
N55   C56    1.31320       .     S
C56   N55    1.31320       .     S
N55   H62    0.82904       .     S
H62   N55    0.82904       .     S
C56   C57    1.46457       .     S
C57   C56    1.46457       .     S
C57   C58    1.35962       .     S
C58   C57    1.35962       .     S
C57   C59    1.38415       .     S
C59   C57    1.38415       .     S
C58   H60    0.91554       .     S
H60   C58    0.91554       .     S
C58   C70    1.40686   1_455     S
C70   C58    1.40686   1_655     S
C59   H61    0.93060       .     S
H61   C59    0.93060       .     S
C59   C69    1.40686   1_455     S
C69   C59    1.40686   1_655     S
N65   C67    1.30792       .     S
C67   N65    1.30792       .     S
N65   H75    0.86059       .     S
H75   N65    0.86059       .     S
N65   H76    0.86498       .     S
H76   N65    0.86498       .     S
N66   C67    1.31320       .     S
C67   N66    1.31320       .     S
N66   H73    0.85468       .     S
H73   N66    0.85468       .     S
N66   H74    0.82904       .     S
H74   N66    0.82904       .     S
C67   C68    1.46457       .     S
C68   C67    1.46457       .     S
C68   C69    1.35962       .     S
C69   C68    1.35962       .     S
C68   C70    1.38415       .     S
C70   C68    1.38415       .     S
C69   H71    0.91554       .     S
H71   C69    0.91554       .     S
C70   H72    0.93061       .     S
H72   C70    0.93061       .     S
O1    H53    1.99260       .     S
H53   O1     1.99260       .     S
O0    H63    1.85378       .     S
H63   O0     1.85378       .     S
C2    O0     1.29788       .     S
O0    C2     1.29788       .     S
C2    O1     1.22173       .     S
O1    C2     1.22173       .     S
C3    C2     1.50136       .     S
C2    C3     1.50136       .     S
C4    C3     1.37229       .     S
C3    C4     1.37229       .     S
C8    C3     1.31153       .     S
C3    C8     1.31153       .     S
C5    C4     1.38293   1_455     S
C4    C5     1.38293   1_655     S
H10   C4     0.92130       .     S
C4    H10    0.92130       .     S
C6    C5     1.36196       .     S
C5    C6     1.36196       .     S
H11   C5     0.92593       .     S
C5    H11    0.92593       .     S
C7    C6     1.33451       .     S
C6    C7     1.33451       .     S
C9    C6     1.54003       .     S
C6    C9     1.54003       .     S
C8    C7     1.39481   1_655     S
C7    C8     1.39481   1_455     S
H12   C7     0.91890       .     S
C7    H12    0.91890       .     S
H13   C8     0.91710       .     S
C8    H13    0.91710       .     S
C20   C9     1.54003       .     S
C9    C20    1.54003       .     S
C33   C9     1.54003       .     S
C9    C33    1.54003       .     S
C46   C9     1.54003       .     S
C9    C46    1.54003       .     S
C16   O14    1.29788       .     S
O14   C16    1.29788       .     S
C16   O15    1.22173       .     S
O15   C16    1.22173       .     S
C17   C16    1.50136       .     S
C16   C17    1.50136       .     S
C18   C17    1.37229       .     S
C17   C18    1.37229       .     S
C22   C17    1.31153       .     S
C17   C22    1.31153       .     S
C19   C18    1.38293       .     S
C18   C19    1.38293       .     S
H23   C18    0.92131       .     S
C18   H23    0.92131       .     S
C20   C19    1.36196       .     S
C19   C20    1.36196       .     S
H24   C19    0.92593       .     S
C19   H24    0.92593       .     S
C21   C20    1.33451       .     S
C20   C21    1.33451       .     S
C22   C21    1.39481       .     S
C21   C22    1.39481       .     S
H25   C21    0.91890       .     S
C21   H25    0.91890       .     S
H26   C22    0.91710       .     S
C22   H26    0.91710       .     S
C29   O27    1.29788       .     S
O27   C29    1.29788       .     S
C29   O28    1.22173       .     S
O28   C29    1.22173       .     S
C30   C29    1.50136       .     S
C29   C30    1.50136       .     S
C31   C30    1.37229       .     S
C30   C31    1.37229       .     S
C35   C30    1.31153       .     S
C30   C35    1.31153       .     S
C32   C31    1.38293       .     S
C31   C32    1.38293       .     S
H36   C31    0.92131       .     S
C31   H36    0.92131       .     S
C33   C32    1.36196       .     S
C32   C33    1.36196       .     S
H37   C32    0.92593       .     S
C32   H37    0.92593       .     S
C34   C33    1.33451       .     S
C33   C34    1.33451       .     S
C35   C34    1.39481       .     S
C34   C35    1.39481       .     S
H38   C34    0.91890       .     S
C34   H38    0.91890       .     S
H39   C35    0.91710       .     S
C35   H39    0.91710       .     S
C42   O40    1.29788       .     S
O40   C42    1.29788       .     S
C42   O41    1.22173       .     S
O41   C42    1.22173       .     S
C43   C42    1.50136       .     S
C42   C43    1.50136       .     S
C44   C43    1.37229       .     S
C43   C44    1.37229       .     S
C48   C43    1.31153       .     S
C43   C48    1.31153       .     S
C45   C44    1.38293   1_455     S
C44   C45    1.38293   1_655     S
H49   C44    0.92131       .     S
C44   H49    0.92131       .     S
C46   C45    1.36196       .     S
C45   C46    1.36196       .     S
H50   C45    0.92593       .     S
C45   H50    0.92593       .     S
C47   C46    1.33451       .     S
C46   C47    1.33451       .     S
C48   C47    1.39481   1_655     S
C47   C48    1.39481   1_455     S
H51   C47    0.91890       .     S
C47   H51    0.91890       .     S
H52   C48    0.91710       .     S
C48   H52    0.91710       .     S
N55   H53    0.85468       .     S
H53   N55    0.85468       .     S
C56   N54    1.30792       .     S
N54   C56    1.30792       .     S
H63   N54    0.86059       .     S
N54   H63    0.86059       .     S
H64   N54    0.86498       .     S
N54   H64    0.86498       .     S
C56   N55    1.31320       .     S
N55   C56    1.31320       .     S
H62   N55    0.82904       .     S
N55   H62    0.82904       .     S
C57   C56    1.46457       .     S
C56   C57    1.46457       .     S
C58   C57    1.35962       .     S
C57   C58    1.35962       .     S
C59   C57    1.38415       .     S
C57   C59    1.38415       .     S
H60   C58    0.91554       .     S
C58   H60    0.91554       .     S
C70   C58    1.40686   1_655     S
C58   C70    1.40686   1_455     S
H61   C59    0.93060       .     S
C59   H61    0.93060       .     S
C69   C59    1.40686   1_655     S
C59   C69    1.40686   1_455     S
C67   N65    1.30792       .     S
N65   C67    1.30792       .     S
H75   N65    0.86059       .     S
N65   H75    0.86059       .     S
H76   N65    0.86498       .     S
N65   H76    0.86498       .     S
C67   N66    1.31320       .     S
N66   C67    1.31320       .     S
H73   N66    0.85468       .     S
N66   H73    0.85468       .     S
H74   N66    0.82904       .     S
N66   H74    0.82904       .     S
C68   C67    1.46457       .     S
C67   C68    1.46457       .     S
C69   C68    1.35962       .     S
C68   C69    1.35962       .     S
C70   C68    1.38415       .     S
C68   C70    1.38415       .     S
H71   C69    0.91554       .     S
C69   H71    0.91554       .     S
H72   C70    0.93061       .     S
C70   H72    0.93061       .     S
