data_I
_chemical_name_common  '/data/user2/wty/HOF/MOFDiff/mofdiff/data/test/293-btere'
_cell_length_a 22.04700
_cell_length_b  7.26700
_cell_length_c 24.32700
_cell_angle_alpha 90.00000
_cell_angle_beta  99.26000
_cell_angle_gamma 90.00000
_space_group_name_H-M_alt      'P 1'


loop_
_space_group_symop_operation_xyz
  'x, y, z' 

loop_
_atom_site_label
_atom_site_fract_x
_atom_site_fract_y
_atom_site_fract_z
_atom_site_type_symbol
H0     0.96015  0.12879   0.4667     H
C1      0.2877   0.0511   0.2164     C
C2      0.3187   0.9016   0.2453     C
H3     0.31481  0.88039   0.2831     H
C4      0.2706   0.4464   0.3165     C
H5     0.22729  0.45595  0.31392     H
C6        0.25   0.1774     0.25     C
C7      0.2946   0.3064   0.2879     C
C8      0.3075   0.5726   0.3485     C
H9     0.28944  0.66385  0.36865     H
C10     0.3581   0.2943   0.2933     C
H11    0.37613  0.19599  0.27589     H
C12     0.3547   0.7859   0.2191     C
H13    0.37479   0.6847  0.23901     H
C14     0.4128   0.7169   0.3784     C
C15      0.372   0.5668   0.3515     C
C16     0.3897   0.8853   0.3908     C
H17    0.34652   0.9035  0.38528     H
C18     0.4033   0.6929   0.1375     C
C19     0.3954   0.4232   0.3238     C
H20    0.43871  0.41314  0.32584     H
C21     0.3619   0.8148   0.1645     C
C22     0.3314   0.9631   0.1354     C
H23    0.33676  0.98772  0.09818     H
C24     0.2929   0.0742   0.1615     C
H25    0.26981  0.16837   0.1406     H
C26     0.4009   0.5075   0.1423     C
H27    0.37102  0.45344  0.16132     H
C28      0.428   0.0273    0.411     C
H29    0.41087  0.14233  0.41898     H
C30     0.4911   0.0054   0.4199     C
C31      0.486   0.4736   0.0925     C
C32     0.4418   0.3949   0.1196     C
H33    0.43931  0.26492  0.12274     H
C34     0.4759   0.6919   0.3892     C
H35    0.49292  0.57543  0.38256     H
C36      0.531    0.356     0.07     C
C37     0.4474   0.7714   0.1091     C
H38      0.448  0.90105  0.10421     H
C39     0.5335   0.1545    0.443     C
C40     0.4892   0.6654   0.0882     C
H41    0.52029  0.72099   0.0709     H
C42     0.5141   0.8341   0.4095     C
H43    0.55729  0.81434  0.41659     H
N44     0.5147   0.2928   0.4682     N
H45    0.54061  0.38006  0.48154     H
H46    0.47577  0.30064  0.47214     H
N47     0.5133   0.1994   0.0467     N
H48    0.53985  0.12879   0.0333     H
H49    0.47477   0.1643  0.04442     H
N50     0.5877   0.4106   0.0738     N
H51    0.61478  0.34146  0.06061     H
H52    0.59898  0.51676  0.08967     H
N53     0.5916   0.1413   0.4368     N
H54    0.61783    0.228  0.45005     H
H55    0.60423  0.04592  0.41945     H
C56     0.2123   0.0511   0.2836     C
C57     0.1813   0.9016   0.2547     C
H58    0.18519  0.88039   0.2169     H
C59     0.2294   0.4464   0.1835     C
H60    0.27271  0.45595  0.18608     H
C61     0.2054   0.3064   0.2121     C
C62     0.1925   0.5726   0.1515     C
H63    0.21056  0.66385  0.13135     H
C64     0.1419   0.2943   0.2067     C
H65    0.12387  0.19599  0.22411     H
C66     0.1453   0.7859   0.2809     C
H67    0.12521   0.6847  0.26099     H
C68     0.0872   0.7169   0.1216     C
C69      0.128   0.5668   0.1485     C
C70     0.1103   0.8853   0.1092     C
H71    0.15348   0.9035  0.11472     H
C72     0.0967   0.6929   0.3625     C
C73     0.1046   0.4232   0.1762     C
H74    0.06129  0.41314  0.17416     H
C75     0.1381   0.8148   0.3355     C
C76     0.1686   0.9631   0.3646     C
H77    0.16324  0.98772  0.40182     H
C78     0.2071   0.0742   0.3385     C
H79    0.23019  0.16837   0.3594     H
C80     0.0991   0.5075   0.3577     C
H81    0.12898  0.45344  0.33868     H
C82      0.072   0.0273    0.089     C
H83    0.08912  0.14233  0.08102     H
C84     0.0089   0.0054   0.0801     C
C85      0.014   0.4736   0.4075     C
C86     0.0582   0.3949   0.3804     C
H87    0.06069  0.26492  0.37726     H
C88     0.0241   0.6919   0.1108     C
H89    0.00708  0.57543  0.11744     H
C90      0.969    0.356     0.43     C
C91     0.0526   0.7714   0.3909     C
H92      0.052  0.90105  0.39579     H
C93     0.9665   0.1545    0.057     C
C94     0.0108   0.6654   0.4118     C
H95    0.97971  0.72099   0.4291     H
C96     0.9859   0.8341   0.0905     C
H97    0.94271  0.81434  0.08341     H
N98     0.9853   0.2928   0.0318     N
H99    0.95939  0.38006  0.01845     H
H100   0.02423  0.30064  0.02785     H
N101    0.9867   0.1994   0.4533     N
H102   0.02523   0.1643  0.45558     H
N103    0.9123   0.4106   0.4262     N
H104   0.88522  0.34146  0.43939     H
H105   0.90102  0.51676  0.41033     H
N106    0.9084   0.1413   0.0632     N
H107   0.88216    0.228  0.04995     H
H108   0.89577  0.04592  0.08055     H
O109   0.83365   0.1717   0.4651     O
C110    0.8007   0.8858   0.4958     C
C111    0.8117   0.7023   0.5024     C
H112   0.85202  0.65688  0.50214     H
C113    0.6956   0.8354   0.5072     C
H114   0.65631  0.88297  0.51097     H
C115    0.7424   0.9532   0.4994     C
H116   0.73476  0.08177  0.49649     H
C117    0.7651   0.5795   0.5095     C
H118   0.77357  0.45182  0.51419     H
C119    0.6539    0.513   0.5094     C
C120    0.7059   0.6465   0.5096     C
C121    0.8496   0.0158   0.4851     C
O122   0.60068   0.5771   0.5067     O
O123    0.6671   0.3458   0.5107     O
O124   0.90496   0.9628   0.4945     O
loop_
_geom_bond_atom_site_label_1
_geom_bond_atom_site_label_2
_geom_bond_distance
_geom_bond_site_symmetry_2
_ccdc_geom_bond_type
H0    O124   1.91253   1_545     S
O124  H0     1.91253   1_565     S
H45   O122   1.97939       .     S
O122  H45    1.97939       .     S
H54   O123   1.89047       .     S
O123  H54    1.89047       .     S
H104  O109   1.85327       .     S
O109  H104   1.85327       .     S
H0    N101   0.87955       .     S
N101  H0     0.87955       .     S
C1    C2     1.40963   1_545     S
C2    C1     1.40963   1_565     S
C1    C6     1.55564       .     S
C6    C1     1.55564       .     S
C1    C24    1.36905       .     S
C24   C1     1.36905       .     S
C2    H3     0.94978       .     S
H3    C2     0.94978       .     S
C2    C12    1.38055       .     S
C12   C2     1.38055       .     S
C4    H5     0.94932       .     S
H5    C4     0.94932       .     S
C4    C7     1.38477       .     S
C7    C4     1.38477       .     S
C4    C8     1.38025       .     S
C8    C4     1.38025       .     S
C6    C7     1.55048       .     S
C7    C6     1.55048       .     S
C6    C56    1.55564       .     S
C56   C6     1.55564       .     S
C6    C61    1.55048       .     S
C61   C6     1.55048       .     S
C7    C10    1.38772       .     S
C10   C7     1.38772       .     S
C8    H9     0.94940       .     S
H9    C8     0.94940       .     S
C8    C15    1.41276       .     S
C15   C8     1.41276       .     S
C10   H11    0.94972       .     S
H11   C10    0.94972       .     S
C10   C19    1.38125       .     S
C19   C10    1.38125       .     S
C12   H13    0.95004       .     S
H13   C12    0.95004       .     S
C12   C21    1.37892       .     S
C21   C12    1.37892       .     S
C14   C15    1.49590       .     S
C15   C14    1.49590       .     S
C14   C16    1.37746       .     S
C16   C14    1.37746       .     S
C14   C34    1.38555       .     S
C34   C14    1.38555       .     S
C15   C19    1.38604       .     S
C19   C15    1.38604       .     S
C16   H17    0.94903       .     S
H17   C16    0.94903       .     S
C16   C28    1.37324   1_565     S
C28   C16    1.37324   1_545     S
C18   C21    1.49740       .     S
C21   C18    1.49740       .     S
C18   C26    1.35412       .     S
C26   C18    1.35412       .     S
C18   C37    1.40152       .     S
C37   C18    1.40152       .     S
C19   H20    0.95095       .     S
H20   C19    0.95095       .     S
C21   C22    1.40055       .     S
C22   C21    1.40055       .     S
C22   H23    0.94882       .     S
H23   C22    0.94882       .     S
C22   C24    1.39603   1_565     S
C24   C22    1.39603   1_545     S
C24   H25    0.95009       .     S
H25   C24    0.95009       .     S
C26   H27    0.94894       .     S
H27   C26    0.94894       .     S
C26   C32    1.39566       .     S
C32   C26    1.39566       .     S
C28   H29    0.95009       .     S
H29   C28    0.95009       .     S
C28   C30    1.38225       .     S
C30   C28    1.38225       .     S
C30   C39    1.48141       .     S
C39   C30    1.48141       .     S
C30   C42    1.38277   1_545     S
C42   C30    1.38277   1_565     S
C31   C32    1.38494       .     S
C32   C31    1.38494       .     S
C31   C36    1.47953       .     S
C36   C31    1.47953       .     S
C31   C40    1.40036       .     S
C40   C31    1.40036       .     S
C32   H33    0.94995       .     S
H33   C32    0.94995       .     S
C34   H35    0.95015       .     S
H35   C34    0.95015       .     S
C34   C42    1.37374       .     S
C42   C34    1.37374       .     S
C36   N47    1.30286       .     S
N47   C36    1.30286       .     S
C36   N50    1.30056       .     S
N50   C36    1.30056       .     S
C37   H38    0.95001       .     S
H38   C37    0.95001       .     S
C37   C40    1.36086       .     S
C40   C37    1.36086       .     S
C39   N44    1.28042       .     S
N44   C39    1.28042       .     S
C39   N53    1.31716       .     S
N53   C39    1.31716       .     S
C40   H41    0.95025       .     S
H41   C40    0.95025       .     S
C42   H43    0.95090       .     S
H43   C42    0.95090       .     S
N44   H45    0.87981       .     S
H45   N44    0.87981       .     S
N44   H46    0.88066       .     S
H46   N44    0.88066       .     S
N47   H48    0.87955       .     S
H48   N47    0.87955       .     S
N47   H49    0.88010       .     S
H49   N47    0.88010       .     S
N50   H51    0.87949       .     S
H51   N50    0.87949       .     S
N50   H52    0.88043       .     S
H52   N50    0.88043       .     S
N53   H54    0.88051       .     S
H54   N53    0.88051       .     S
N53   H55    0.87973       .     S
H55   N53    0.87973       .     S
C56   C57    1.40963   1_545     S
C57   C56    1.40963   1_565     S
C56   C78    1.36905       .     S
C78   C56    1.36905       .     S
C57   H58    0.94978       .     S
H58   C57    0.94978       .     S
C57   C66    1.38055       .     S
C66   C57    1.38055       .     S
C59   H60    0.94932       .     S
H60   C59    0.94932       .     S
C59   C61    1.38477       .     S
C61   C59    1.38477       .     S
C59   C62    1.38025       .     S
C62   C59    1.38025       .     S
C61   C64    1.38772       .     S
C64   C61    1.38772       .     S
C62   H63    0.94940       .     S
H63   C62    0.94940       .     S
C62   C69    1.41275       .     S
C69   C62    1.41275       .     S
C64   H65    0.94972       .     S
H65   C64    0.94972       .     S
C64   C73    1.38125       .     S
C73   C64    1.38125       .     S
C66   H67    0.95004       .     S
H67   C66    0.95004       .     S
C66   C75    1.37892       .     S
C75   C66    1.37892       .     S
C68   C69    1.49590       .     S
C69   C68    1.49590       .     S
C68   C70    1.37746       .     S
C70   C68    1.37746       .     S
C68   C88    1.38555       .     S
C88   C68    1.38555       .     S
C69   C73    1.38604       .     S
C73   C69    1.38604       .     S
C70   H71    0.94903       .     S
H71   C70    0.94903       .     S
C70   C82    1.37324   1_565     S
C82   C70    1.37324   1_545     S
C72   C75    1.49740       .     S
C75   C72    1.49740       .     S
C72   C80    1.35412       .     S
C80   C72    1.35412       .     S
C72   C91    1.40152       .     S
C91   C72    1.40152       .     S
C73   H74    0.95095       .     S
H74   C73    0.95095       .     S
C75   C76    1.40055       .     S
C76   C75    1.40055       .     S
C76   H77    0.94882       .     S
H77   C76    0.94882       .     S
C76   C78    1.39603   1_565     S
C78   C76    1.39603   1_545     S
C78   H79    0.95009       .     S
H79   C78    0.95009       .     S
C80   H81    0.94894       .     S
H81   C80    0.94894       .     S
C80   C86    1.39566       .     S
C86   C80    1.39566       .     S
C82   H83    0.95000       .     S
H83   C82    0.95000       .     S
C82   C84    1.38225       .     S
C84   C82    1.38225       .     S
C84   C93    1.48141   1_455     S
C93   C84    1.48141   1_655     S
C84   C96    1.38277   1_445     S
C96   C84    1.38277   1_665     S
C85   C86    1.38494       .     S
C86   C85    1.38494       .     S
C85   C90    1.47953   1_455     S
C90   C85    1.47953   1_655     S
C85   C94    1.40036       .     S
C94   C85    1.40036       .     S
C86   H87    0.94995       .     S
H87   C86    0.94995       .     S
C88   H89    0.95015       .     S
H89   C88    0.95015       .     S
C88   C96    1.37374   1_455     S
C96   C88    1.37374   1_655     S
C90   N101   1.30286       .     S
N101  C90    1.30286       .     S
C90   N103   1.30056       .     S
N103  C90    1.30056       .     S
C91   H92    0.95001       .     S
H92   C91    0.95001       .     S
C91   C94    1.36086       .     S
C94   C91    1.36086       .     S
C93   N98    1.28042       .     S
N98   C93    1.28042       .     S
C93   N106   1.31716       .     S
N106  C93    1.31716       .     S
C94   H95    0.95026   1_455     S
H95   C94    0.95026   1_655     S
C96   H97    0.95090       .     S
H97   C96    0.95090       .     S
N98   H99    0.87988       .     S
H99   N98    0.87988       .     S
N98   H100   0.88073   1_655     S
H100  N98    0.88073   1_455     S
N101  H102   0.88010   1_655     S
H102  N101   0.88010   1_455     S
N103  H104   0.87949       .     S
H104  N103   0.87949       .     S
N103  H105   0.88043       .     S
H105  N103   0.88043       .     S
N106  H107   0.88064       .     S
H107  N106   0.88064       .     S
N106  H108   0.87973       .     S
H108  N106   0.87973       .     S
O109  C121   1.26049       .     S
C121  O109   1.26049       .     S
C110  C111   1.36025       .     S
C111  C110   1.36025       .     S
C110  C115   1.39137       .     S
C115  C110   1.39137       .     S
C110  C121   1.48756   1_565     S
C121  C110   1.48756   1_545     S
C111  H112   0.94921       .     S
H112  C111   0.94921       .     S
C111  C117   1.39242       .     S
C117  C111   1.39242       .     S
C113  H114   0.95070       .     S
H114  C113   0.95070       .     S
C113  C115   1.37712       .     S
C115  C113   1.37712       .     S
C113  C120   1.39108       .     S
C120  C113   1.39108       .     S
C115  H116   0.95000   1_565     S
H116  C115   0.95000   1_545     S
C117  H118   0.94970       .     S
H118  C117   0.94970       .     S
C117  C120   1.39341       .     S
C120  C117   1.39341       .     S
C119  C120   1.50125       .     S
C120  C119   1.50125       .     S
C119  O122   1.25428       .     S
O122  C119   1.25428       .     S
C119  O123   1.24862       .     S
O123  C119   1.24862       .     S
C121  O124   1.26510   1_545     S
O124  C121   1.26510   1_565     S
O124  H0     1.91253   1_565     S
H0    O124   1.91253   1_545     S
O122  H45    1.97939       .     S
H45   O122   1.97939       .     S
O123  H54    1.89047       .     S
H54   O123   1.89047       .     S
O109  H104   1.85327       .     S
H104  O109   1.85327       .     S
N101  H0     0.87955       .     S
H0    N101   0.87955       .     S
C2    C1     1.40963   1_565     S
C1    C2     1.40963   1_545     S
C6    C1     1.55564       .     S
C1    C6     1.55564       .     S
C24   C1     1.36905       .     S
C1    C24    1.36905       .     S
H3    C2     0.94978       .     S
C2    H3     0.94978       .     S
C12   C2     1.38055       .     S
C2    C12    1.38055       .     S
H5    C4     0.94932       .     S
C4    H5     0.94932       .     S
C7    C4     1.38477       .     S
C4    C7     1.38477       .     S
C8    C4     1.38025       .     S
C4    C8     1.38025       .     S
C7    C6     1.55048       .     S
C6    C7     1.55048       .     S
C56   C6     1.55564       .     S
C6    C56    1.55564       .     S
C61   C6     1.55048       .     S
C6    C61    1.55048       .     S
C10   C7     1.38772       .     S
C7    C10    1.38772       .     S
H9    C8     0.94940       .     S
C8    H9     0.94940       .     S
C15   C8     1.41276       .     S
C8    C15    1.41276       .     S
H11   C10    0.94972       .     S
C10   H11    0.94972       .     S
C19   C10    1.38125       .     S
C10   C19    1.38125       .     S
H13   C12    0.95004       .     S
C12   H13    0.95004       .     S
C21   C12    1.37892       .     S
C12   C21    1.37892       .     S
C15   C14    1.49590       .     S
C14   C15    1.49590       .     S
C16   C14    1.37746       .     S
C14   C16    1.37746       .     S
C34   C14    1.38555       .     S
C14   C34    1.38555       .     S
C19   C15    1.38604       .     S
C15   C19    1.38604       .     S
H17   C16    0.94903       .     S
C16   H17    0.94903       .     S
C28   C16    1.37324   1_545     S
C16   C28    1.37324   1_565     S
C21   C18    1.49740       .     S
C18   C21    1.49740       .     S
C26   C18    1.35412       .     S
C18   C26    1.35412       .     S
C37   C18    1.40152       .     S
C18   C37    1.40152       .     S
H20   C19    0.95095       .     S
C19   H20    0.95095       .     S
C22   C21    1.40055       .     S
C21   C22    1.40055       .     S
H23   C22    0.94882       .     S
C22   H23    0.94882       .     S
C24   C22    1.39603   1_545     S
C22   C24    1.39603   1_565     S
H25   C24    0.95009       .     S
C24   H25    0.95009       .     S
H27   C26    0.94894       .     S
C26   H27    0.94894       .     S
C32   C26    1.39566       .     S
C26   C32    1.39566       .     S
H29   C28    0.95009       .     S
C28   H29    0.95009       .     S
C30   C28    1.38225       .     S
C28   C30    1.38225       .     S
C39   C30    1.48141       .     S
C30   C39    1.48141       .     S
C42   C30    1.38277   1_565     S
C30   C42    1.38277   1_545     S
C32   C31    1.38494       .     S
C31   C32    1.38494       .     S
C36   C31    1.47953       .     S
C31   C36    1.47953       .     S
C40   C31    1.40036       .     S
C31   C40    1.40036       .     S
H33   C32    0.94995       .     S
C32   H33    0.94995       .     S
H35   C34    0.95015       .     S
C34   H35    0.95015       .     S
C42   C34    1.37374       .     S
C34   C42    1.37374       .     S
N47   C36    1.30286       .     S
C36   N47    1.30286       .     S
N50   C36    1.30056       .     S
C36   N50    1.30056       .     S
H38   C37    0.95001       .     S
C37   H38    0.95001       .     S
C40   C37    1.36086       .     S
C37   C40    1.36086       .     S
N44   C39    1.28042       .     S
C39   N44    1.28042       .     S
N53   C39    1.31716       .     S
C39   N53    1.31716       .     S
H41   C40    0.95025       .     S
C40   H41    0.95025       .     S
H43   C42    0.95090       .     S
C42   H43    0.95090       .     S
H45   N44    0.87981       .     S
N44   H45    0.87981       .     S
H46   N44    0.88066       .     S
N44   H46    0.88066       .     S
H48   N47    0.87955       .     S
N47   H48    0.87955       .     S
H49   N47    0.88010       .     S
N47   H49    0.88010       .     S
H51   N50    0.87949       .     S
N50   H51    0.87949       .     S
H52   N50    0.88043       .     S
N50   H52    0.88043       .     S
H54   N53    0.88051       .     S
N53   H54    0.88051       .     S
H55   N53    0.87973       .     S
N53   H55    0.87973       .     S
C57   C56    1.40963   1_565     S
C56   C57    1.40963   1_545     S
C78   C56    1.36905       .     S
C56   C78    1.36905       .     S
H58   C57    0.94978       .     S
C57   H58    0.94978       .     S
C66   C57    1.38055       .     S
C57   C66    1.38055       .     S
H60   C59    0.94932       .     S
C59   H60    0.94932       .     S
C61   C59    1.38477       .     S
C59   C61    1.38477       .     S
C62   C59    1.38025       .     S
C59   C62    1.38025       .     S
C64   C61    1.38772       .     S
C61   C64    1.38772       .     S
H63   C62    0.94940       .     S
C62   H63    0.94940       .     S
C69   C62    1.41275       .     S
C62   C69    1.41275       .     S
H65   C64    0.94972       .     S
C64   H65    0.94972       .     S
C73   C64    1.38125       .     S
C64   C73    1.38125       .     S
H67   C66    0.95004       .     S
C66   H67    0.95004       .     S
C75   C66    1.37892       .     S
C66   C75    1.37892       .     S
C69   C68    1.49590       .     S
C68   C69    1.49590       .     S
C70   C68    1.37746       .     S
C68   C70    1.37746       .     S
C88   C68    1.38555       .     S
C68   C88    1.38555       .     S
C73   C69    1.38604       .     S
C69   C73    1.38604       .     S
H71   C70    0.94903       .     S
C70   H71    0.94903       .     S
C82   C70    1.37324   1_545     S
C70   C82    1.37324   1_565     S
C75   C72    1.49740       .     S
C72   C75    1.49740       .     S
C80   C72    1.35412       .     S
C72   C80    1.35412       .     S
C91   C72    1.40152       .     S
C72   C91    1.40152       .     S
H74   C73    0.95095       .     S
C73   H74    0.95095       .     S
C76   C75    1.40055       .     S
C75   C76    1.40055       .     S
H77   C76    0.94882       .     S
C76   H77    0.94882       .     S
C78   C76    1.39603   1_545     S
C76   C78    1.39603   1_565     S
H79   C78    0.95009       .     S
C78   H79    0.95009       .     S
H81   C80    0.94894       .     S
C80   H81    0.94894       .     S
C86   C80    1.39566       .     S
C80   C86    1.39566       .     S
H83   C82    0.95000       .     S
C82   H83    0.95000       .     S
C84   C82    1.38225       .     S
C82   C84    1.38225       .     S
C93   C84    1.48141   1_655     S
C84   C93    1.48141   1_455     S
C96   C84    1.38277   1_665     S
C84   C96    1.38277   1_445     S
C86   C85    1.38494       .     S
C85   C86    1.38494       .     S
C90   C85    1.47953   1_655     S
C85   C90    1.47953   1_455     S
C94   C85    1.40036       .     S
C85   C94    1.40036       .     S
H87   C86    0.94995       .     S
C86   H87    0.94995       .     S
H89   C88    0.95015       .     S
C88   H89    0.95015       .     S
C96   C88    1.37374   1_655     S
C88   C96    1.37374   1_455     S
N101  C90    1.30286       .     S
C90   N101   1.30286       .     S
N103  C90    1.30056       .     S
C90   N103   1.30056       .     S
H92   C91    0.95001       .     S
C91   H92    0.95001       .     S
C94   C91    1.36086       .     S
C91   C94    1.36086       .     S
N98   C93    1.28042       .     S
C93   N98    1.28042       .     S
N106  C93    1.31716       .     S
C93   N106   1.31716       .     S
H95   C94    0.95026   1_655     S
C94   H95    0.95026   1_455     S
H97   C96    0.95090       .     S
C96   H97    0.95090       .     S
H99   N98    0.87988       .     S
N98   H99    0.87988       .     S
H100  N98    0.88073   1_455     S
N98   H100   0.88073   1_655     S
H102  N101   0.88010   1_455     S
N101  H102   0.88010   1_655     S
H104  N103   0.87949       .     S
N103  H104   0.87949       .     S
H105  N103   0.88043       .     S
N103  H105   0.88043       .     S
H107  N106   0.88064       .     S
N106  H107   0.88064       .     S
H108  N106   0.87973       .     S
N106  H108   0.87973       .     S
C121  O109   1.26049       .     S
O109  C121   1.26049       .     S
C111  C110   1.36025       .     S
C110  C111   1.36025       .     S
C115  C110   1.39137       .     S
C110  C115   1.39137       .     S
C121  C110   1.48756   1_545     S
C110  C121   1.48756   1_565     S
H112  C111   0.94921       .     S
C111  H112   0.94921       .     S
C117  C111   1.39242       .     S
C111  C117   1.39242       .     S
H114  C113   0.95070       .     S
C113  H114   0.95070       .     S
C115  C113   1.37712       .     S
C113  C115   1.37712       .     S
C120  C113   1.39108       .     S
C113  C120   1.39108       .     S
H116  C115   0.95000   1_545     S
C115  H116   0.95000   1_565     S
H118  C117   0.94970       .     S
C117  H118   0.94970       .     S
C120  C117   1.39341       .     S
C117  C120   1.39341       .     S
C120  C119   1.50125       .     S
C119  C120   1.50125       .     S
O122  C119   1.25428       .     S
C119  O122   1.25428       .     S
O123  C119   1.24862       .     S
C119  O123   1.24862       .     S
O124  C121   1.26510   1_565     S
C121  O124   1.26510   1_545     S
