data_I
_chemical_name_common  '/data/user2/wty/HOF/MOFDiff/mofdiff/data/test/293-2s4'
_cell_length_a  7.01500
_cell_length_b  9.01400
_cell_length_c  9.59800
_cell_angle_alpha 107.23000
_cell_angle_beta  96.32000
_cell_angle_gamma 108.81000
_space_group_name_H-M_alt      'P 1'


loop_
_space_group_symop_operation_xyz
  'x, y, z' 

loop_
_atom_site_label
_atom_site_fract_x
_atom_site_fract_y
_atom_site_fract_z
_atom_site_type_symbol
O0     0.47931  0.53866  0.22578     O
O1     0.70381  0.85518  0.68967     O
O2     0.43336  0.92781  0.72063     O
O3     0.52069  0.46134  0.77422     O
N4      0.6739   0.7305  0.92201     N
H5     0.77889  0.80512  0.99058     H
C6      0.8433     0.54  0.93794     C
C7      0.0352   0.6652  0.01503     C
H8     0.05942   0.7759  0.02485     H
C9      0.6664   0.5755  0.87088     C
C10     0.8093   0.3764   0.9227     C
H11     0.6815  0.29277  0.87036     H
C12     0.5559   0.8611  0.74978     C
C13     0.5129   0.7797   0.8674     C
H14    0.48968  0.85745  0.95184     H
H15     0.3861  0.68129  0.82502     H
O16    0.29619  0.14482  0.31033     O
O17    0.56664  0.07219  0.27937     O
N18     0.3261   0.2695  0.07799     N
H19    0.22111  0.19488  0.00942     H
C20     0.1567     0.46  0.06206     C
C21     0.9648   0.3348  0.98497     C
H22    0.94058   0.2241  0.97514     H
C23     0.3336   0.4245  0.12912     C
C24     0.1907   0.6236   0.0773     C
H25     0.3185  0.70723  0.12964     H
C26     0.4441   0.1389  0.25022     C
C27     0.4871   0.2203   0.1326     C
H28    0.51032  0.14255  0.04816     H
H29     0.6139  0.31871  0.17498     H
O30    0.10985  0.97965  0.82346     O
H31    0.98937  0.90617  0.78081     H
H32    0.19078  0.93458  0.78627     H
H33    0.76667  0.01333  0.58096     H
N34     0.7824   0.0972  0.55182     N
H35    0.67989  0.09994  0.49603     H
N36     0.1232    0.222  0.67718     N
H37    0.11274  0.14005  0.70826     H
H38    0.23941  0.30499  0.70178     H
C39     0.1616   0.4422  0.50096     C
H40     0.2691  0.40312   0.5021     H
C41     0.9621   0.2202  0.59227     C
C42     0.9831   0.3639  0.54289     C
C43     0.8217   0.4227  0.54208     C
H44    0.70306  0.37034  0.57069     H
N45     0.2176   0.9028  0.44818     N
H46    0.23333  0.98667  0.41904     H
H47    0.32011  0.90006  0.50396     H
N48     0.8768    0.778  0.32282     N
H49    0.88726  0.85995  0.29174     H
H50    0.76059  0.69501  0.29822     H
C51     0.8384   0.5578  0.49904     C
H52     0.7309  0.59688  0.49789     H
C53     0.0379   0.7798  0.40773     C
C54     0.0169   0.6361  0.45711     C
C55     0.1783   0.5773  0.45792     C
H56    0.29694  0.62967  0.42931     H
loop_
_geom_bond_atom_site_label_1
_geom_bond_atom_site_label_2
_geom_bond_distance
_geom_bond_site_symmetry_2
_ccdc_geom_bond_type
H19   O30    2.05529   1_544     S
O30   H19    2.05529   1_566     S
H31   O1     1.94205       .     S
O1    H31    1.94205       .     S
H32   O2     1.89120       .     S
O2    H32    1.89120       .     S
H33   O1     1.97293   1_545     S
O1    H33    1.97293   1_565     S
H35   O17    2.05378       .     S
O17   H35    2.05378       .     S
H37   O30    2.06071   1_545     S
O30   H37    2.06071   1_565     S
H38   O3     1.92022       .     S
O3    H38    1.92022       .     S
H46   O16    1.97293   1_565     S
O16   H46    1.97293   1_545     S
H47   O2     2.05387       .     S
O2    H47    2.05387       .     S
H50   O0     1.92022       .     S
O0    H50    1.92022       .     S
O0    C23    1.22955       .     S
C23   O0     1.22955       .     S
O1    C12    1.24962       .     S
C12   O1     1.24962       .     S
O2    C12    1.24854       .     S
C12   O2     1.24854       .     S
O3    C9     1.22955       .     S
C9    O3     1.22955       .     S
N4    H5     0.85999       .     S
H5    N4     0.85999       .     S
N4    C9     1.31773       .     S
C9    N4     1.31773       .     S
N4    C13    1.44131       .     S
C13   N4     1.44131       .     S
C6    C7     1.39270   1_656     S
C7    C6     1.39270   1_454     S
C6    C9     1.50296       .     S
C9    C6     1.50296       .     S
C6    C10    1.37503       .     S
C10   C6     1.37503       .     S
C7    H8     0.92999       .     S
H8    C7     0.92999       .     S
C7    C24    1.39311       .     S
C24   C7     1.39311       .     S
C10   H11    0.93009       .     S
H11   C10    0.93009       .     S
C10   C21    1.39311       .     S
C21   C10    1.39311       .     S
C12   C13    1.52538       .     S
C13   C12    1.52538       .     S
C13   H14    0.96991       .     S
H14   C13    0.96991       .     S
C13   H15    0.97021       .     S
H15   C13    0.97021       .     S
O16   C26    1.24962       .     S
C26   O16    1.24962       .     S
O17   C26    1.24854       .     S
C26   O17    1.24854       .     S
N18   H19    0.85999       .     S
H19   N18    0.85999       .     S
N18   C23    1.31773       .     S
C23   N18    1.31773       .     S
N18   C27    1.44131       .     S
C27   N18    1.44131       .     S
C20   C21    1.39270   1_454     S
C21   C20    1.39270   1_656     S
C20   C23    1.50296       .     S
C23   C20    1.50296       .     S
C20   C24    1.37503       .     S
C24   C20    1.37503       .     S
C21   H22    0.92997       .     S
H22   C21    0.92997       .     S
C24   H25    0.93009       .     S
H25   C24    0.93009       .     S
C26   C27    1.52538       .     S
C27   C26    1.52538       .     S
C27   H28    0.96991       .     S
H28   C27    0.96991       .     S
C27   H29    0.97021       .     S
H29   C27    0.97021       .     S
O30   H31    0.85018   1_455     S
H31   O30    0.85018   1_655     S
O30   H32    0.84983       .     S
H32   O30    0.84983       .     S
H33   N34    0.86035       .     S
N34   H33    0.86035       .     S
N34   H35    0.85963       .     S
H35   N34    0.85963       .     S
N34   C41    1.30578       .     S
C41   N34    1.30578       .     S
N36   H37    0.86050       .     S
H37   N36    0.86050       .     S
N36   H38    0.86003       .     S
H38   N36    0.86003       .     S
N36   C41    1.31117   1_455     S
C41   N36    1.31117   1_655     S
C39   H40    0.92988       .     S
H40   C39    0.92988       .     S
C39   C42    1.39189   1_455     S
C42   C39    1.39189   1_655     S
C39   C55    1.37261       .     S
C55   C39    1.37261       .     S
C41   C42    1.47654       .     S
C42   C41    1.47654       .     S
C42   C43    1.39657       .     S
C43   C42    1.39657       .     S
C43   H44    0.92984       .     S
H44   C43    0.92984       .     S
C43   C51    1.37261       .     S
C51   C43    1.37261       .     S
N45   H46    0.86035       .     S
H46   N45    0.86035       .     S
N45   H47    0.85958       .     S
H47   N45    0.85958       .     S
N45   C53    1.30578       .     S
C53   N45    1.30578       .     S
N48   H49    0.86050       .     S
H49   N48    0.86050       .     S
N48   H50    0.86003       .     S
H50   N48    0.86003       .     S
N48   C53    1.31117   1_655     S
C53   N48    1.31117   1_455     S
C51   H52    0.92988       .     S
H52   C51    0.92988       .     S
C51   C54    1.39189   1_655     S
C54   C51    1.39189   1_455     S
C53   C54    1.47654       .     S
C54   C53    1.47654       .     S
C54   C55    1.39657       .     S
C55   C54    1.39657       .     S
C55   H56    0.92987       .     S
H56   C55    0.92987       .     S
O30   H19    2.05529   1_566     S
H19   O30    2.05529   1_544     S
O1    H31    1.94205       .     S
H31   O1     1.94205       .     S
O2    H32    1.89120       .     S
H32   O2     1.89120       .     S
O1    H33    1.97293   1_565     S
H33   O1     1.97293   1_545     S
O17   H35    2.05378       .     S
H35   O17    2.05378       .     S
O30   H37    2.06071   1_565     S
H37   O30    2.06071   1_545     S
O3    H38    1.92022       .     S
H38   O3     1.92022       .     S
O16   H46    1.97293   1_545     S
H46   O16    1.97293   1_565     S
O2    H47    2.05387       .     S
H47   O2     2.05387       .     S
O0    H50    1.92022       .     S
H50   O0     1.92022       .     S
C23   O0     1.22955       .     S
O0    C23    1.22955       .     S
C12   O1     1.24962       .     S
O1    C12    1.24962       .     S
C12   O2     1.24854       .     S
O2    C12    1.24854       .     S
C9    O3     1.22955       .     S
O3    C9     1.22955       .     S
H5    N4     0.85999       .     S
N4    H5     0.85999       .     S
C9    N4     1.31773       .     S
N4    C9     1.31773       .     S
C13   N4     1.44131       .     S
N4    C13    1.44131       .     S
C7    C6     1.39270   1_454     S
C6    C7     1.39270   1_656     S
C9    C6     1.50296       .     S
C6    C9     1.50296       .     S
C10   C6     1.37503       .     S
C6    C10    1.37503       .     S
H8    C7     0.92999       .     S
C7    H8     0.92999       .     S
C24   C7     1.39311       .     S
C7    C24    1.39311       .     S
H11   C10    0.93009       .     S
C10   H11    0.93009       .     S
C21   C10    1.39311       .     S
C10   C21    1.39311       .     S
C13   C12    1.52538       .     S
C12   C13    1.52538       .     S
H14   C13    0.96991       .     S
C13   H14    0.96991       .     S
H15   C13    0.97021       .     S
C13   H15    0.97021       .     S
C26   O16    1.24962       .     S
O16   C26    1.24962       .     S
C26   O17    1.24854       .     S
O17   C26    1.24854       .     S
H19   N18    0.85999       .     S
N18   H19    0.85999       .     S
C23   N18    1.31773       .     S
N18   C23    1.31773       .     S
C27   N18    1.44131       .     S
N18   C27    1.44131       .     S
C21   C20    1.39270   1_656     S
C20   C21    1.39270   1_454     S
C23   C20    1.50296       .     S
C20   C23    1.50296       .     S
C24   C20    1.37503       .     S
C20   C24    1.37503       .     S
H22   C21    0.92997       .     S
C21   H22    0.92997       .     S
H25   C24    0.93009       .     S
C24   H25    0.93009       .     S
C27   C26    1.52538       .     S
C26   C27    1.52538       .     S
H28   C27    0.96991       .     S
C27   H28    0.96991       .     S
H29   C27    0.97021       .     S
C27   H29    0.97021       .     S
H31   O30    0.85018   1_655     S
O30   H31    0.85018   1_455     S
H32   O30    0.84983       .     S
O30   H32    0.84983       .     S
N34   H33    0.86035       .     S
H33   N34    0.86035       .     S
H35   N34    0.85963       .     S
N34   H35    0.85963       .     S
C41   N34    1.30578       .     S
N34   C41    1.30578       .     S
H37   N36    0.86050       .     S
N36   H37    0.86050       .     S
H38   N36    0.86003       .     S
N36   H38    0.86003       .     S
C41   N36    1.31117   1_655     S
N36   C41    1.31117   1_455     S
H40   C39    0.92988       .     S
C39   H40    0.92988       .     S
C42   C39    1.39189   1_655     S
C39   C42    1.39189   1_455     S
C55   C39    1.37261       .     S
C39   C55    1.37261       .     S
C42   C41    1.47654       .     S
C41   C42    1.47654       .     S
C43   C42    1.39657       .     S
C42   C43    1.39657       .     S
H44   C43    0.92984       .     S
C43   H44    0.92984       .     S
C51   C43    1.37261       .     S
C43   C51    1.37261       .     S
H46   N45    0.86035       .     S
N45   H46    0.86035       .     S
H47   N45    0.85958       .     S
N45   H47    0.85958       .     S
C53   N45    1.30578       .     S
N45   C53    1.30578       .     S
H49   N48    0.86050       .     S
N48   H49    0.86050       .     S
H50   N48    0.86003       .     S
N48   H50    0.86003       .     S
C53   N48    1.31117   1_455     S
N48   C53    1.31117   1_655     S
H52   C51    0.92988       .     S
C51   H52    0.92988       .     S
C54   C51    1.39189   1_455     S
C51   C54    1.39189   1_655     S
C54   C53    1.47654       .     S
C53   C54    1.47654       .     S
C55   C54    1.39657       .     S
C54   C55    1.39657       .     S
H56   C55    0.92987       .     S
C55   H56    0.92987       .     S
