data_I
_chemical_name_common  '/data/user2/wty/HOF/MOFDiff/mofdiff/data/test/294-4_bpy_dmso_dcm'
_cell_length_a 11.43260
_cell_length_b 29.08330
_cell_length_c 11.57890
_cell_angle_alpha 90.00000
_cell_angle_beta  116.10200
_cell_angle_gamma 90.00000
_space_group_name_H-M_alt      'P 1'


loop_
_space_group_symop_operation_xyz
  'x, y, z' 

loop_
_atom_site_label
_atom_site_fract_x
_atom_site_fract_y
_atom_site_fract_z
_atom_site_type_symbol
O0      0.1938  0.24817   0.2318     O
S1     0.08478  0.26886  0.11281     S
C2       0.007   0.2219   0.0076     C
C3      0.9586   0.2821   0.1579     C
H4      0.8869   0.2952   0.0867     H
H5      0.9314   0.2547   0.1837     H
H6      0.9901   0.3033   0.2273     H
H7      0.9375   0.2331   0.9311     H
H8      0.9738    0.201   0.0491     H
H9      0.0684   0.2064   0.9866     H
N10     0.4108   0.4424   0.3971     N
C11     0.3209  0.41514   0.4128     C
C12     0.2833  0.37769   0.3208     C
C13     0.3529  0.38264    0.253     C
C14     0.4317  0.42334   0.2997     C
C15     0.5177  0.43999   0.2531     C
C16     0.5961  0.47964   0.2969     C
N17     0.5983  0.50894   0.3901     N
C18     0.6905  0.54145   0.4064     C
C19     0.7461  0.53275   0.3185     C
C20     0.6892   0.4948   0.2523     C
C21     0.5325  0.41192   0.1511     C
C22     0.5887  0.36823   0.1815     C
C23      0.606  0.34172   0.0899     C
C24     0.5622  0.35855    0.965     C
C25     0.5061   0.4019   0.9347     C
C26      0.492  0.42855   0.0268     C
C27     0.5727   0.3305   0.8627     C
O28     0.6631  0.29782   0.9074     O
O29     0.5072  0.33765   0.7483     O
C30     0.2722  0.42247   0.5032     C
C31     0.1679  0.38998   0.4981     C
C32     0.0408  0.40486   0.4572     C
C33     0.9424  0.37407   0.4443     C
C34     0.9712  0.32791   0.4699     C
C35     0.0995  0.31284   0.5148     C
C36     0.1963  0.34394   0.5297     C
C37     0.8637  0.29479   0.4473     C
O38     0.7553  0.30643   0.4282     O
O39      0.899   0.2514   0.4496     O
N40      0.663   0.4561   0.6251     N
C41      0.786   0.4699   0.6624     C
C42     0.8914   0.4412   0.7156     C
C43     0.8744  0.39471   0.7331     C
C44      0.747  0.38069    0.699     C
C45     0.6459  0.41193   0.6459     C
C46     0.9865   0.3624   0.7859     C
C47     0.1123    0.378    0.861     C
C48     0.2137   0.3472   0.9006     C
N49     0.1978  0.30244   0.8734     N
C50     0.0768   0.2871   0.8037     C
C51     0.9691  0.31559    0.759     C
Ni52       0.5      0.5      0.5    Ni
H53     0.2227   0.3546   0.3107     H
H54     0.3494   0.3629   0.1878     H
H55       0.81   0.5503   0.3099     H
H56     0.7061   0.4803    0.189     H
H57     0.6156   0.3567   0.2654     H
H58     0.6459    0.313   0.1125     H
H59     0.4786   0.4127   0.8507     H
H60     0.4565   0.4583   0.0066     H
H61     0.0233   0.4363   0.4391     H
H62      0.856   0.3846   0.4179     H
H63       0.12   0.2814   0.5351     H
H64     0.2826   0.3338   0.5624     H
H65     0.8008   0.5013   0.6516     H
H66     0.9761   0.4529   0.7419     H
H67     0.7297   0.3502   0.7122     H
H68     0.5605   0.4017   0.6234     H
H69     0.1267   0.4089   0.8837     H
H70     0.2979    0.358   0.9493     H
H71     0.0657   0.2555   0.7856     H
H72      0.885   0.3038   0.7112     H
H73      0.835    0.235    0.426     H
H74      0.671    0.283     0.85     H
N75     0.5892   0.5576   0.6029     N
C76     0.6791  0.58486   0.5872     C
C77     0.7167  0.62231   0.6792     C
C78     0.6471  0.61736    0.747     C
C79     0.5683  0.57666   0.7003     C
C80     0.4823  0.56001   0.7469     C
C81     0.4039  0.52036   0.7031     C
N82     0.4017  0.49106   0.6099     N
C83     0.3095  0.45855   0.5936     C
C84     0.2539  0.46725   0.6815     C
C85     0.3108   0.5052   0.7477     C
C86     0.4675  0.58808   0.8489     C
C87     0.4113  0.63177   0.8185     C
C88      0.394  0.65828   0.9101     C
C89     0.4378  0.64145    0.035     C
C90     0.4939   0.5981   0.0653     C
C91      0.508  0.57145   0.9732     C
C92     0.4273   0.6695   0.1373     C
O93     0.3369  0.70218   0.0926     O
O94     0.4928  0.66235   0.2517     O
C95     0.7278  0.57753   0.4968     C
C96     0.8321  0.61002   0.5019     C
C97     0.9592  0.59514   0.5428     C
C98     0.0576  0.62593   0.5557     C
C99     0.0288  0.67209   0.5301     C
C100    0.9005  0.68716   0.4852     C
C101    0.8037  0.65606   0.4703     C
C102    0.1363  0.70521   0.5527     C
O103    0.2447  0.69357   0.5718     O
O104     0.101   0.7486   0.5504     O
H105    0.7773   0.6454   0.6893     H
H106    0.6506   0.6371   0.8122     H
H107      0.19   0.4497   0.6901     H
H108    0.2939   0.5197    0.811     H
H109    0.3844   0.6433   0.7346     H
H110    0.3541    0.687   0.8875     H
H111    0.5214   0.5873   0.1493     H
H112    0.5435   0.5417   0.9934     H
H113    0.9767   0.5637   0.5609     H
H114     0.144   0.6154   0.5821     H
H115      0.88   0.7186   0.4649     H
H116    0.7174   0.6662   0.4376     H
H117     0.165    0.765    0.574     H
H118     0.329    0.717     0.15     H
N119     0.337   0.5439   0.3749     N
C120     0.214   0.5301   0.3376     C
C121    0.1086   0.5588   0.2844     C
C122    0.1256  0.60529   0.2669     C
C123     0.253  0.61931    0.301     C
C124    0.3541  0.58807   0.3541     C
C125    0.0135   0.6376   0.2141     C
C126    0.8877    0.622    0.139     C
C127    0.7863   0.6528   0.0994     C
N128    0.8022  0.69756   0.1266     N
C129    0.9232   0.7129   0.1963     C
C130    0.0309  0.68441    0.241     C
H131    0.1992   0.4987   0.3484     H
H132    0.0239   0.5471   0.2581     H
H133    0.2703   0.6498   0.2878     H
H134    0.4395   0.5983   0.3766     H
H135    0.8733   0.5911   0.1163     H
H136    0.7021    0.642   0.0507     H
H137    0.9343   0.7445   0.2144     H
H138     0.115   0.6962   0.2888     H
C139    0.8254   0.4367   0.0121     C
Cl140   0.9824  0.42797   0.1187    Cl
Cl141   0.7844  0.49451   0.9748    Cl
H142    0.8074   0.4203   0.9352     H
H143    0.7722   0.4252   0.0496     H
loop_
_geom_bond_atom_site_label_1
_geom_bond_atom_site_label_2
_geom_bond_distance
_geom_bond_site_symmetry_2
_ccdc_geom_bond_type
O0    S1     1.51748       .     S
S1    O0     1.51748       .     S
S1    C2     1.78517       .     S
C2    S1     1.78517       .     S
S1    C3     1.77893   1_455     S
C3    S1     1.77893   1_655     S
C2    H7     0.95013   1_454     S
H7    C2     0.95013   1_656     S
C2    H8     0.95128   1_455     S
H8    C2     0.95128   1_655     S
C2    H9     0.95146   1_554     S
H9    C2     0.95146   1_556     S
C3    H4     0.94979       .     S
H4    C3     0.94979       .     S
C3    H5     0.95011       .     S
H5    C3     0.95011       .     S
C3    H6     0.94918       .     S
H6    C3     0.94918       .     S
N10   C11    1.37199       .     S
C11   N10    1.37199       .     S
N10   C14    1.36872       .     S
C14   N10    1.36872       .     S
N10   Ni52   2.04858       .     S
Ni52  N10    2.04858       .     S
C11   C12    1.45014       .     S
C12   C11    1.45014       .     S
C11   C30    1.40139       .     S
C30   C11    1.40139       .     S
C12   C13    1.34902       .     S
C13   C12    1.34902       .     S
C12   H53    0.93452       .     S
H53   C12    0.93452       .     S
C13   C14    1.44099       .     S
C14   C13    1.44099       .     S
C13   H54    0.93518       .     S
H54   C13    0.93518       .     S
C14   C15    1.39969       .     S
C15   C14    1.39969       .     S
C15   C16    1.41080       .     S
C16   C15    1.41080       .     S
C15   C21    1.50526       .     S
C21   C15    1.50526       .     S
C16   N17    1.36655       .     S
N17   C16    1.36655       .     S
C16   C20    1.44141       .     S
C20   C16    1.44141       .     S
N17   C18    1.36588       .     S
C18   N17    1.36588       .     S
N17   Ni52   2.05141       .     S
Ni52  N17    2.05141       .     S
C18   C19    1.43988       .     S
C19   C18    1.43988       .     S
C18   C95    1.40919       .     S
C95   C18    1.40919       .     S
C19   C20    1.33796       .     S
C20   C19    1.33796       .     S
C19   H55    0.93174       .     S
H55   C19    0.93174       .     S
C20   H56    0.93648       .     S
H56   C20    0.93648       .     S
C21   C22    1.39723       .     S
C22   C21    1.39723       .     S
C21   C26    1.39046       .     S
C26   C21    1.39046       .     S
C22   C23    1.39394       .     S
C23   C22    1.39394       .     S
C22   H57    0.94228       .     S
H57   C22    0.94228       .     S
C23   C24    1.39449   1_554     S
C24   C23    1.39449   1_556     S
C23   H58    0.93231       .     S
H58   C23    0.93231       .     S
C24   C25    1.38779       .     S
C25   C24    1.38779       .     S
C24   C27    1.48598       .     S
C27   C24    1.48598       .     S
C25   C26    1.38392   1_556     S
C26   C25    1.38392   1_554     S
C25   H59    0.93511       .     S
H59   C25    0.93511       .     S
C26   H60    0.94049       .     S
H60   C26    0.94049       .     S
C27   O28    1.32991       .     S
O28   C27    1.32991       .     S
C27   O29    1.21893       .     S
O29   C27    1.21893       .     S
O28   H74    0.82975       .     S
H74   O28    0.82975       .     S
C30   C31    1.50208       .     S
C31   C30    1.50208       .     S
C30   C83    1.40919       .     S
C83   C30    1.40919       .     S
C31   C32    1.38473       .     S
C32   C31    1.38473       .     S
C31   C36    1.38841       .     S
C36   C31    1.38841       .     S
C32   C33    1.39351   1_455     S
C33   C32    1.39351   1_655     S
C32   H61    0.93976       .     S
H61   C32    0.93976       .     S
C33   C34    1.38299       .     S
C34   C33    1.38299       .     S
C33   H62    0.94723       .     S
H62   C33    0.94723       .     S
C34   C35    1.39387   1_655     S
C35   C34    1.39387   1_455     S
C34   C37    1.49123       .     S
C37   C34    1.49123       .     S
C35   C36    1.38007       .     S
C36   C35    1.38007       .     S
C35   H63    0.94752       .     S
H63   C35    0.94752       .     S
C36   H64    0.93544       .     S
H64   C36    0.93544       .     S
C37   O38    1.20755       .     S
O38   C37    1.20755       .     S
C37   O39    1.32158       .     S
O39   C37    1.32158       .     S
O39   H73    0.81339       .     S
H73   O39    0.81339       .     S
N40   C41    1.33814       .     S
C41   N40    1.33814       .     S
N40   C45    1.33711       .     S
C45   N40    1.33711       .     S
N40   Ni52   2.19676       .     S
Ni52  N40    2.19676       .     S
C41   C42    1.36931       .     S
C42   C41    1.36931       .     S
C41   H65    0.94702       .     S
H65   C41    0.94702       .     S
C42   C43    1.39342       .     S
C43   C42    1.39342       .     S
C42   H66    0.94166       .     S
H66   C42    0.94166       .     S
C43   C44    1.39196       .     S
C44   C43    1.39196       .     S
C43   C46    1.48654       .     S
C46   C43    1.48654       .     S
C44   C45    1.38352       .     S
C45   C44    1.38352       .     S
C44   H67    0.93563       .     S
H67   C44    0.93563       .     S
C45   H68    0.94118       .     S
H68   C45    0.94118       .     S
C46   C47    1.38924   1_655     S
C47   C46    1.38924   1_455     S
C46   C51    1.39120       .     S
C51   C46    1.39120       .     S
C47   C48    1.37434       .     S
C48   C47    1.37434       .     S
C47   H69    0.93044       .     S
H69   C47    0.93044       .     S
C48   N49    1.33284       .     S
N49   C48    1.33284       .     S
C48   H70    0.93039       .     S
H70   C48    0.93039       .     S
N49   C50    1.33477       .     S
C50   N49    1.33477       .     S
C50   C51    1.38193   1_455     S
C51   C50    1.38193   1_655     S
C50   H71    0.93875       .     S
H71   C50    0.93875       .     S
C51   H72    0.93813       .     S
H72   C51    0.93813       .     S
Ni52  N75    2.04858       .     S
N75   Ni52   2.04858       .     S
Ni52  N82    2.05141       .     S
N82   Ni52   2.05141       .     S
Ni52  N119   2.19676       .     S
N119  Ni52   2.19676       .     S
N75   C76    1.37199       .     S
C76   N75    1.37199       .     S
N75   C79    1.36872       .     S
C79   N75    1.36872       .     S
C76   C77    1.45014       .     S
C77   C76    1.45014       .     S
C76   C95    1.40139       .     S
C95   C76    1.40139       .     S
C77   C78    1.34902       .     S
C78   C77    1.34902       .     S
C77   H105   0.93452       .     S
H105  C77    0.93452       .     S
C78   C79    1.44099       .     S
C79   C78    1.44099       .     S
C78   H106   0.93518       .     S
H106  C78    0.93518       .     S
C79   C80    1.39969       .     S
C80   C79    1.39969       .     S
C80   C81    1.41080       .     S
C81   C80    1.41080       .     S
C80   C86    1.50526       .     S
C86   C80    1.50526       .     S
C81   N82    1.36655       .     S
N82   C81    1.36655       .     S
C81   C85    1.44140       .     S
C85   C81    1.44140       .     S
N82   C83    1.36588       .     S
C83   N82    1.36588       .     S
C83   C84    1.43988       .     S
C84   C83    1.43988       .     S
C84   C85    1.33796       .     S
C85   C84    1.33796       .     S
C84   H107   0.93174       .     S
H107  C84    0.93174       .     S
C85   H108   0.93648       .     S
H108  C85    0.93648       .     S
C86   C87    1.39724       .     S
C87   C86    1.39724       .     S
C86   C91    1.39046       .     S
C91   C86    1.39046       .     S
C87   C88    1.39394       .     S
C88   C87    1.39394       .     S
C87   H109   0.94228       .     S
H109  C87    0.94228       .     S
C88   C89    1.39449   1_556     S
C89   C88    1.39449   1_554     S
C88   H110   0.93231       .     S
H110  C88    0.93231       .     S
C89   C90    1.38779       .     S
C90   C89    1.38779       .     S
C89   C92    1.48598       .     S
C92   C89    1.48598       .     S
C90   C91    1.38392   1_554     S
C91   C90    1.38392   1_556     S
C90   H111   0.93511       .     S
H111  C90    0.93511       .     S
C91   H112   0.94049       .     S
H112  C91    0.94049       .     S
C92   O93    1.32991       .     S
O93   C92    1.32991       .     S
C92   O94    1.21893       .     S
O94   C92    1.21893       .     S
O93   H118   0.82975       .     S
H118  O93    0.82975       .     S
C95   C96    1.50208       .     S
C96   C95    1.50208       .     S
C96   C97    1.38473       .     S
C97   C96    1.38473       .     S
C96   C101   1.38841       .     S
C101  C96    1.38841       .     S
C97   C98    1.39351   1_655     S
C98   C97    1.39351   1_455     S
C97   H113   0.93976       .     S
H113  C97    0.93976       .     S
C98   C99    1.38299       .     S
C99   C98    1.38299       .     S
C98   H114   0.94723       .     S
H114  C98    0.94723       .     S
C99   C100   1.39387   1_455     S
C100  C99    1.39387   1_655     S
C99   C102   1.49123       .     S
C102  C99    1.49123       .     S
C100  C101   1.38007       .     S
C101  C100   1.38007       .     S
C100  H115   0.94752       .     S
H115  C100   0.94752       .     S
C101  H116   0.93544       .     S
H116  C101   0.93544       .     S
C102  O103   1.20755       .     S
O103  C102   1.20755       .     S
C102  O104   1.32158       .     S
O104  C102   1.32158       .     S
O104  H117   0.81339       .     S
H117  O104   0.81339       .     S
N119  C120   1.33814       .     S
C120  N119   1.33814       .     S
N119  C124   1.33711       .     S
C124  N119   1.33711       .     S
C120  C121   1.36931       .     S
C121  C120   1.36931       .     S
C120  H131   0.94702       .     S
H131  C120   0.94702       .     S
C121  C122   1.39342       .     S
C122  C121   1.39342       .     S
C121  H132   0.94166       .     S
H132  C121   0.94166       .     S
C122  C123   1.39196       .     S
C123  C122   1.39196       .     S
C122  C125   1.48654       .     S
C125  C122   1.48654       .     S
C123  C124   1.38352       .     S
C124  C123   1.38352       .     S
C123  H133   0.93563       .     S
H133  C123   0.93563       .     S
C124  H134   0.94118       .     S
H134  C124   0.94118       .     S
C125  C126   1.38924   1_455     S
C126  C125   1.38924   1_655     S
C125  C130   1.39120       .     S
C130  C125   1.39120       .     S
C126  C127   1.37434       .     S
C127  C126   1.37434       .     S
C126  H135   0.93044       .     S
H135  C126   0.93044       .     S
C127  N128   1.33284       .     S
N128  C127   1.33284       .     S
C127  H136   0.93039       .     S
H136  C127   0.93039       .     S
N128  C129   1.33477       .     S
C129  N128   1.33477       .     S
C129  C130   1.38193   1_655     S
C130  C129   1.38193   1_455     S
C129  H137   0.93875       .     S
H137  C129   0.93875       .     S
C130  H138   0.93813       .     S
H138  C130   0.93813       .     S
C139  Cl140  1.69122       .     S
Cl140 C139   1.69122       .     S
C139  Cl141  1.74783   1_554     S
Cl141 C139   1.74783   1_556     S
C139  H142   0.94945   1_554     S
H142  C139   0.94945   1_556     S
C139  H143   0.95011       .     S
H143  C139   0.95011       .     S
S1    O0     1.51748       .     S
O0    S1     1.51748       .     S
C2    S1     1.78517       .     S
S1    C2     1.78517       .     S
C3    S1     1.77893   1_655     S
S1    C3     1.77893   1_455     S
H7    C2     0.95013   1_656     S
C2    H7     0.95013   1_454     S
H8    C2     0.95128   1_655     S
C2    H8     0.95128   1_455     S
H9    C2     0.95146   1_556     S
C2    H9     0.95146   1_554     S
H4    C3     0.94979       .     S
C3    H4     0.94979       .     S
H5    C3     0.95011       .     S
C3    H5     0.95011       .     S
H6    C3     0.94918       .     S
C3    H6     0.94918       .     S
C11   N10    1.37199       .     S
N10   C11    1.37199       .     S
C14   N10    1.36872       .     S
N10   C14    1.36872       .     S
Ni52  N10    2.04858       .     S
N10   Ni52   2.04858       .     S
C12   C11    1.45014       .     S
C11   C12    1.45014       .     S
C30   C11    1.40139       .     S
C11   C30    1.40139       .     S
C13   C12    1.34902       .     S
C12   C13    1.34902       .     S
H53   C12    0.93452       .     S
C12   H53    0.93452       .     S
C14   C13    1.44099       .     S
C13   C14    1.44099       .     S
H54   C13    0.93518       .     S
C13   H54    0.93518       .     S
C15   C14    1.39969       .     S
C14   C15    1.39969       .     S
C16   C15    1.41080       .     S
C15   C16    1.41080       .     S
C21   C15    1.50526       .     S
C15   C21    1.50526       .     S
N17   C16    1.36655       .     S
C16   N17    1.36655       .     S
C20   C16    1.44141       .     S
C16   C20    1.44141       .     S
C18   N17    1.36588       .     S
N17   C18    1.36588       .     S
Ni52  N17    2.05141       .     S
N17   Ni52   2.05141       .     S
C19   C18    1.43988       .     S
C18   C19    1.43988       .     S
C95   C18    1.40919       .     S
C18   C95    1.40919       .     S
C20   C19    1.33796       .     S
C19   C20    1.33796       .     S
H55   C19    0.93174       .     S
C19   H55    0.93174       .     S
H56   C20    0.93648       .     S
C20   H56    0.93648       .     S
C22   C21    1.39723       .     S
C21   C22    1.39723       .     S
C26   C21    1.39046       .     S
C21   C26    1.39046       .     S
C23   C22    1.39394       .     S
C22   C23    1.39394       .     S
H57   C22    0.94228       .     S
C22   H57    0.94228       .     S
C24   C23    1.39449   1_556     S
C23   C24    1.39449   1_554     S
H58   C23    0.93231       .     S
C23   H58    0.93231       .     S
C25   C24    1.38779       .     S
C24   C25    1.38779       .     S
C27   C24    1.48598       .     S
C24   C27    1.48598       .     S
C26   C25    1.38392   1_554     S
C25   C26    1.38392   1_556     S
H59   C25    0.93511       .     S
C25   H59    0.93511       .     S
H60   C26    0.94049       .     S
C26   H60    0.94049       .     S
O28   C27    1.32991       .     S
C27   O28    1.32991       .     S
O29   C27    1.21893       .     S
C27   O29    1.21893       .     S
H74   O28    0.82975       .     S
O28   H74    0.82975       .     S
C31   C30    1.50208       .     S
C30   C31    1.50208       .     S
C83   C30    1.40919       .     S
C30   C83    1.40919       .     S
C32   C31    1.38473       .     S
C31   C32    1.38473       .     S
C36   C31    1.38841       .     S
C31   C36    1.38841       .     S
C33   C32    1.39351   1_655     S
C32   C33    1.39351   1_455     S
H61   C32    0.93976       .     S
C32   H61    0.93976       .     S
C34   C33    1.38299       .     S
C33   C34    1.38299       .     S
H62   C33    0.94723       .     S
C33   H62    0.94723       .     S
C35   C34    1.39387   1_455     S
C34   C35    1.39387   1_655     S
C37   C34    1.49123       .     S
C34   C37    1.49123       .     S
C36   C35    1.38007       .     S
C35   C36    1.38007       .     S
H63   C35    0.94752       .     S
C35   H63    0.94752       .     S
H64   C36    0.93544       .     S
C36   H64    0.93544       .     S
O38   C37    1.20755       .     S
C37   O38    1.20755       .     S
O39   C37    1.32158       .     S
C37   O39    1.32158       .     S
H73   O39    0.81339       .     S
O39   H73    0.81339       .     S
C41   N40    1.33814       .     S
N40   C41    1.33814       .     S
C45   N40    1.33711       .     S
N40   C45    1.33711       .     S
Ni52  N40    2.19676       .     S
N40   Ni52   2.19676       .     S
C42   C41    1.36931       .     S
C41   C42    1.36931       .     S
H65   C41    0.94702       .     S
C41   H65    0.94702       .     S
C43   C42    1.39342       .     S
C42   C43    1.39342       .     S
H66   C42    0.94166       .     S
C42   H66    0.94166       .     S
C44   C43    1.39196       .     S
C43   C44    1.39196       .     S
C46   C43    1.48654       .     S
C43   C46    1.48654       .     S
C45   C44    1.38352       .     S
C44   C45    1.38352       .     S
H67   C44    0.93563       .     S
C44   H67    0.93563       .     S
H68   C45    0.94118       .     S
C45   H68    0.94118       .     S
C47   C46    1.38924   1_455     S
C46   C47    1.38924   1_655     S
C51   C46    1.39120       .     S
C46   C51    1.39120       .     S
C48   C47    1.37434       .     S
C47   C48    1.37434       .     S
H69   C47    0.93044       .     S
C47   H69    0.93044       .     S
N49   C48    1.33284       .     S
C48   N49    1.33284       .     S
H70   C48    0.93039       .     S
C48   H70    0.93039       .     S
C50   N49    1.33477       .     S
N49   C50    1.33477       .     S
C51   C50    1.38193   1_655     S
C50   C51    1.38193   1_455     S
H71   C50    0.93875       .     S
C50   H71    0.93875       .     S
H72   C51    0.93813       .     S
C51   H72    0.93813       .     S
N75   Ni52   2.04858       .     S
Ni52  N75    2.04858       .     S
N82   Ni52   2.05141       .     S
Ni52  N82    2.05141       .     S
N119  Ni52   2.19676       .     S
Ni52  N119   2.19676       .     S
C76   N75    1.37199       .     S
N75   C76    1.37199       .     S
C79   N75    1.36872       .     S
N75   C79    1.36872       .     S
C77   C76    1.45014       .     S
C76   C77    1.45014       .     S
C95   C76    1.40139       .     S
C76   C95    1.40139       .     S
C78   C77    1.34902       .     S
C77   C78    1.34902       .     S
H105  C77    0.93452       .     S
C77   H105   0.93452       .     S
C79   C78    1.44099       .     S
C78   C79    1.44099       .     S
H106  C78    0.93518       .     S
C78   H106   0.93518       .     S
C80   C79    1.39969       .     S
C79   C80    1.39969       .     S
C81   C80    1.41080       .     S
C80   C81    1.41080       .     S
C86   C80    1.50526       .     S
C80   C86    1.50526       .     S
N82   C81    1.36655       .     S
C81   N82    1.36655       .     S
C85   C81    1.44140       .     S
C81   C85    1.44140       .     S
C83   N82    1.36588       .     S
N82   C83    1.36588       .     S
C84   C83    1.43988       .     S
C83   C84    1.43988       .     S
C85   C84    1.33796       .     S
C84   C85    1.33796       .     S
H107  C84    0.93174       .     S
C84   H107   0.93174       .     S
H108  C85    0.93648       .     S
C85   H108   0.93648       .     S
C87   C86    1.39724       .     S
C86   C87    1.39724       .     S
C91   C86    1.39046       .     S
C86   C91    1.39046       .     S
C88   C87    1.39394       .     S
C87   C88    1.39394       .     S
H109  C87    0.94228       .     S
C87   H109   0.94228       .     S
C89   C88    1.39449   1_554     S
C88   C89    1.39449   1_556     S
H110  C88    0.93231       .     S
C88   H110   0.93231       .     S
C90   C89    1.38779       .     S
C89   C90    1.38779       .     S
C92   C89    1.48598       .     S
C89   C92    1.48598       .     S
C91   C90    1.38392   1_556     S
C90   C91    1.38392   1_554     S
H111  C90    0.93511       .     S
C90   H111   0.93511       .     S
H112  C91    0.94049       .     S
C91   H112   0.94049       .     S
O93   C92    1.32991       .     S
C92   O93    1.32991       .     S
O94   C92    1.21893       .     S
C92   O94    1.21893       .     S
H118  O93    0.82975       .     S
O93   H118   0.82975       .     S
C96   C95    1.50208       .     S
C95   C96    1.50208       .     S
C97   C96    1.38473       .     S
C96   C97    1.38473       .     S
C101  C96    1.38841       .     S
C96   C101   1.38841       .     S
C98   C97    1.39351   1_455     S
C97   C98    1.39351   1_655     S
H113  C97    0.93976       .     S
C97   H113   0.93976       .     S
C99   C98    1.38299       .     S
C98   C99    1.38299       .     S
H114  C98    0.94723       .     S
C98   H114   0.94723       .     S
C100  C99    1.39387   1_655     S
C99   C100   1.39387   1_455     S
C102  C99    1.49123       .     S
C99   C102   1.49123       .     S
C101  C100   1.38007       .     S
C100  C101   1.38007       .     S
H115  C100   0.94752       .     S
C100  H115   0.94752       .     S
H116  C101   0.93544       .     S
C101  H116   0.93544       .     S
O103  C102   1.20755       .     S
C102  O103   1.20755       .     S
O104  C102   1.32158       .     S
C102  O104   1.32158       .     S
H117  O104   0.81339       .     S
O104  H117   0.81339       .     S
C120  N119   1.33814       .     S
N119  C120   1.33814       .     S
C124  N119   1.33711       .     S
N119  C124   1.33711       .     S
C121  C120   1.36931       .     S
C120  C121   1.36931       .     S
H131  C120   0.94702       .     S
C120  H131   0.94702       .     S
C122  C121   1.39342       .     S
C121  C122   1.39342       .     S
H132  C121   0.94166       .     S
C121  H132   0.94166       .     S
C123  C122   1.39196       .     S
C122  C123   1.39196       .     S
C125  C122   1.48654       .     S
C122  C125   1.48654       .     S
C124  C123   1.38352       .     S
C123  C124   1.38352       .     S
H133  C123   0.93563       .     S
C123  H133   0.93563       .     S
H134  C124   0.94118       .     S
C124  H134   0.94118       .     S
C126  C125   1.38924   1_655     S
C125  C126   1.38924   1_455     S
C130  C125   1.39120       .     S
C125  C130   1.39120       .     S
C127  C126   1.37434       .     S
C126  C127   1.37434       .     S
H135  C126   0.93044       .     S
C126  H135   0.93044       .     S
N128  C127   1.33284       .     S
C127  N128   1.33284       .     S
H136  C127   0.93039       .     S
C127  H136   0.93039       .     S
C129  N128   1.33477       .     S
N128  C129   1.33477       .     S
C130  C129   1.38193   1_455     S
C129  C130   1.38193   1_655     S
H137  C129   0.93875       .     S
C129  H137   0.93875       .     S
H138  C130   0.93813       .     S
C130  H138   0.93813       .     S
Cl140 C139   1.69122       .     S
C139  Cl140  1.69122       .     S
Cl141 C139   1.74783   1_556     S
C139  Cl141  1.74783   1_554     S
H142  C139   0.94945   1_556     S
C139  H142   0.94945   1_554     S
H143  C139   0.95011       .     S
C139  H143   0.95011       .     S
