data_I
_chemical_name_common  '/data/user2/wty/HOF/MOFDiff/mofdiff/data/test/294-4_pyridine'
_cell_length_a 12.44400
_cell_length_b 13.02970
_cell_length_c 23.30040
_cell_angle_alpha 90.00000
_cell_angle_beta  97.77600
_cell_angle_gamma 90.00000
_space_group_name_H-M_alt      'P 1'


loop_
_space_group_symop_operation_xyz
  'x, y, z' 

loop_
_atom_site_label
_atom_site_fract_x
_atom_site_fract_y
_atom_site_fract_z
_atom_site_type_symbol
N0      0.6224  0.36082  0.73286     N
C1     0.56751  0.44943  0.72993     C
C2     0.60075  0.53334  0.76375     C
C3     0.69459  0.52543  0.80229     C
C4     0.75327  0.43519  0.80487     C
C5     0.71464  0.35468  0.76941     C
H6      0.5004   0.4545   0.7015     H
H7       0.559   0.5934   0.7581     H
H8      0.7192   0.5827   0.8267     H
H9      0.8162   0.4263   0.8294     H
H10     0.7528    0.291   0.7709     H
C11     0.9985   0.6168    0.838     C
C12     0.0641   0.5377  0.87083     C
O13    0.09643  0.57474  0.92788     O
C14      0.159   0.5046  0.96278     C
C15     0.1837   0.5419  0.02345     C
H16     0.9755   0.5946   0.7995     H
H17     0.0401   0.6778   0.8373     H
H18     0.9368     0.63   0.8568     H
H19     0.1264   0.5242   0.8525     H
H20      0.023   0.4765   0.8721     H
H21     0.2253   0.4939   0.9477     H
H22     0.1207   0.4415   0.9626     H
H23     0.2265   0.4927   0.0464     H
H24     0.2223   0.6049   0.0239     H
H25     0.1177   0.5525   0.0388     H
H26     0.3643   0.2801    0.679     H
N27    0.43846  0.57367   0.5664     N
C28    0.37449  0.53153  0.60364     C
C29    0.35987  0.60479   0.6488     C
C30    0.41487  0.69056  0.63779     C
C31    0.46426  0.67075  0.58623     C
C32    0.53151  0.74015   0.5617     C
C33    0.58615  0.71999  0.51398     C
N34     0.4177  0.37003  0.51663     N
C35    0.35296  0.35688  0.55901     C
C36    0.65667  0.79208  0.49051     C
C37    0.30581  0.25527  0.55439     C
C38    0.33313  0.43079  0.60044     C
C39    0.55323  0.84191  0.59099     C
C40    0.63362  0.84862  0.63815     C
C41    0.65724  0.94163  0.66588     C
C42    0.60106  0.02921  0.64737     C
C43    0.52075  0.02344  0.60007     C
C44    0.49769  0.93022  0.57218     C
C45    0.62943  0.12641  0.68018     C
O46     0.7101  0.13318  0.71564     O
O47     0.5594  0.20144  0.66761     O
C48    0.26524  0.39761  0.64542     C
C49    0.29741  0.31491   0.6817     C
C50    0.23437  0.28306  0.72328     C
C51    0.13791  0.33343  0.72931     C
C52    0.10529  0.41625  0.69348     C
C53    0.16819   0.4476  0.65182     C
C54     0.0698  0.30191  0.77452     C
O55    0.11764  0.23356  0.81122     O
O56    0.98024  0.33677  0.77697     O
N57    0.63862  0.44659  0.56238     N
C58    0.66907  0.34782  0.56345     C
C59    0.75341  0.30916  0.60253     C
C60    0.80885  0.37497  0.64269     C
C61    0.77875  0.47731  0.64189     C
C62    0.69333  0.50947  0.60122     C
Ni63       0.5      0.5      0.5    Ni
H64     0.3179   0.5925   0.6799     H
H65     0.4201    0.752   0.6587     H
H66     0.6727   0.8586   0.5047     H
H67     0.2574   0.2292   0.5778     H
H68     0.6758   0.7894    0.651     H
H69     0.7141   0.9477   0.6999     H
H70     0.4832   0.0846   0.5856     H
H71     0.4421   0.9279   0.5386     H
H72     0.2579   0.2288   0.7483     H
H73     0.0416    0.453   0.6973     H
H74     0.1466   0.5047   0.6263     H
H75     0.6275   0.3043   0.5349     H
H76     0.7705   0.2385   0.6004     H
H77     0.8693   0.3484    0.671     H
H78     0.8139   0.5225   0.6697     H
H79     0.6696   0.5796   0.5979     H
H80     0.0797   0.2267   0.8376     H
H81     0.5795   0.2539   0.6876     H
N82    0.56154  0.42633   0.4336     N
C83    0.62551  0.46847  0.39636     C
C84    0.64013  0.39521   0.3512     C
C85    0.58513  0.30944  0.36221     C
C86    0.53574  0.32925  0.41377     C
C87    0.46849  0.25985   0.4383     C
C88    0.41385  0.28001  0.48602     C
N89     0.5823  0.62997  0.48337     N
C90    0.64704  0.64312  0.44099     C
C91    0.34333  0.20792  0.50949     C
C92    0.69419  0.74473  0.44561     C
C93    0.66687  0.56921  0.39956     C
C94    0.44677  0.15809  0.40901     C
C95    0.36638  0.15138  0.36185     C
C96    0.34276  0.05837  0.33412     C
C97    0.39894  0.97079  0.35263     C
C98    0.47925  0.97656  0.39993     C
C99    0.50231  0.06978  0.42782     C
C100   0.37057  0.87359  0.31982     C
O101    0.2899  0.86682  0.28436     O
O102    0.4406  0.79856  0.33239     O
C103   0.73476  0.60239  0.35458     C
C104   0.70259  0.68509   0.3183     C
C105   0.76563  0.71694  0.27672     C
C106   0.86209  0.66657  0.27069     C
C107   0.89471  0.58375  0.30652     C
C108   0.83181   0.5524  0.34818     C
C109    0.9302  0.69809  0.22548     C
O110   0.88236  0.76644  0.18878     O
O111   0.01976  0.66323  0.22303     O
H112    0.6821   0.4075   0.3201     H
H113    0.5799    0.248   0.3413     H
H114    0.3273   0.1414   0.4953     H
H115    0.7426   0.7708   0.4222     H
H116    0.3242   0.2106    0.349     H
H117    0.2859   0.0523   0.3001     H
H118    0.5168   0.9154   0.4144     H
H119    0.5579   0.0721   0.4614     H
H120    0.6357   0.7199    0.321     H
H121    0.7421   0.7712   0.2517     H
H122    0.9584    0.547   0.3027     H
H123    0.8534   0.4953   0.3737     H
H124    0.9203   0.7733   0.1624     H
H125    0.4205   0.7461   0.3124     H
N126   0.36138  0.55341  0.43762     N
C127   0.33093  0.65218  0.43655     C
C128   0.24659  0.69084  0.39747     C
C129   0.19115  0.62503  0.35731     C
C130   0.22125  0.52269  0.35811     C
C131   0.30667  0.49053  0.39878     C
H132    0.3725   0.6957   0.4651     H
H133    0.2295   0.7615   0.3996     H
H134    0.1307   0.6516    0.329     H
H135    0.1861   0.4775   0.3303     H
H136    0.3304   0.4204   0.4021     H
N137   0.01936  0.19747  0.90186     N
C138   0.91374  0.20431  0.90479     C
C139   0.86878  0.17841  0.95335     C
C140   0.93653   0.1446  0.00127     C
C141   0.04622   0.1398  0.99903     C
C142   0.08445   0.1662  0.94858     C
H143    0.8697   0.2284   0.8707     H
H144    0.7934   0.1827   0.9521     H
H145    0.9088   0.1256   0.0356     H
H146    0.0965   0.1156    0.033     H
H147     0.165   0.1636   0.9466     H
loop_
_geom_bond_atom_site_label_1
_geom_bond_atom_site_label_2
_geom_bond_distance
_geom_bond_site_symmetry_2
_ccdc_geom_bond_type
H80   N137   1.80415       .     S
N137  H80    1.80415       .     S
H81   N0     1.78483       .     S
N0    H81    1.78483       .     S
N0    C1     1.33851       .     S
C1    N0     1.33851       .     S
N0    C5     1.33592       .     S
C5    N0     1.33592       .     S
C1    C2     1.37812       .     S
C2    C1     1.37812       .     S
C1    H6     0.99544       .     S
H6    C1     0.99544       .     S
C2    C3     1.37728       .     S
C3    C2     1.37728       .     S
C2    H7     0.93870       .     S
H7    C2     0.93870       .     S
C3    C4     1.38111       .     S
C4    C3     1.38111       .     S
C3    H8     0.96280       .     S
H8    C3     0.96280       .     S
C4    C5     1.38084       .     S
C5    C4     1.38084       .     S
C4    H9     0.91227       .     S
H9    C4     0.91227       .     S
C5    H10    0.95430       .     S
H10   C5     0.95430       .     S
C11   C12    1.46451   1_655     S
C12   C11    1.46451   1_455     S
C11   H16    0.94912       .     S
H16   C11    0.94912       .     S
C11   H17    0.94987   1_655     S
H17   C11    0.94987   1_455     S
C11   H18    0.94973       .     S
H18   C11    0.94973       .     S
C12   O13    1.42024       .     S
O13   C12    1.42024       .     S
C12   H19    0.95078       .     S
H19   C12    0.95078       .     S
C12   H20    0.94996       .     S
H20   C12    0.94996       .     S
O13   C14    1.38975       .     S
C14   O13    1.38975       .     S
C14   C15    1.48710   1_556     S
C15   C14    1.48710   1_554     S
C14   H21    0.94975       .     S
H21   C14    0.94975       .     S
C14   H22    0.95005       .     S
H22   C14    0.95005       .     S
C15   H23    0.95053       .     S
H23   C15    0.95053       .     S
C15   H24    0.95042       .     S
H24   C15    0.95042       .     S
C15   H25    0.94922       .     S
H25   C15    0.94922       .     S
H26   C49    0.95745       .     S
C49   H26    0.95745       .     S
N27   C28    1.36930       .     S
C28   N27    1.36930       .     S
N27   C31    1.36984       .     S
C31   N27    1.36984       .     S
N27   Ni63   2.05478       .     S
Ni63  N27    2.05478       .     S
C28   C29    1.45028       .     S
C29   C28    1.45028       .     S
C28   C38    1.40820       .     S
C38   C28    1.40820       .     S
C29   C30    1.35303       .     S
C30   C29    1.35303       .     S
C29   H64    0.96225       .     S
H64   C29    0.96225       .     S
C30   C31    1.44481       .     S
C31   C30    1.44481       .     S
C30   H65    0.93483       .     S
H65   C30    0.93483       .     S
C31   C32    1.40504       .     S
C32   C31    1.40504       .     S
C32   C33    1.40435       .     S
C33   C32    1.40435       .     S
C32   C39    1.49897       .     S
C39   C32    1.49897       .     S
C33   C36    1.44268       .     S
C36   C33    1.44268       .     S
C33   N89    1.37022       .     S
N89   C33    1.37022       .     S
N34   C35    1.36703       .     S
C35   N34    1.36703       .     S
N34   Ni63   2.04310       .     S
Ni63  N34    2.04310       .     S
N34   C88    1.37022       .     S
C88   N34    1.37022       .     S
C35   C37    1.44623       .     S
C37   C35    1.44623       .     S
C35   C38    1.40877       .     S
C38   C35    1.40877       .     S
C36   H66    0.93941       .     S
H66   C36    0.93941       .     S
C36   C92    1.35104       .     S
C92   C36    1.35104       .     S
C37   H67    0.92991       .     S
H67   C37    0.92991       .     S
C37   C91    1.35104       .     S
C91   C37    1.35104       .     S
C38   C48    1.49621       .     S
C48   C38    1.49621       .     S
C39   C40    1.38506       .     S
C40   C39    1.38506       .     S
C39   C44    1.38268       .     S
C44   C39    1.38268       .     S
C40   C41    1.38606       .     S
C41   C40    1.38606       .     S
C40   H68    0.95814       .     S
H68   C40    0.95814       .     S
C41   C42    1.37672   1_565     S
C42   C41    1.37672   1_545     S
C41   H69    0.99170       .     S
H69   C41    0.99170       .     S
C42   C43    1.38600       .     S
C43   C42    1.38600       .     S
C42   C45    1.49667       .     S
C45   C42    1.49667       .     S
C43   C44    1.38907   1_545     S
C44   C43    1.38907   1_565     S
C43   H70    0.96147       .     S
H70   C43    0.96147       .     S
C44   H71    0.97220       .     S
H71   C44    0.97220       .     S
C45   O46    1.21397       .     S
O46   C45    1.21397       .     S
C45   O47    1.31601       .     S
O47   C45    1.31601       .     S
O47   H81    0.84570       .     S
H81   O47    0.84570       .     S
C48   C49    1.39442       .     S
C49   C48    1.39442       .     S
C48   C53    1.39777       .     S
C53   C48    1.39777       .     S
C49   C50    1.38993       .     S
C50   C49    1.38993       .     S
C50   C51    1.39174       .     S
C51   C50    1.39174       .     S
C50   H72    0.93768       .     S
H72   C50    0.93768       .     S
C51   C52    1.39088       .     S
C52   C51    1.39088       .     S
C51   C54    1.49610       .     S
C54   C51    1.49610       .     S
C52   C53    1.38830       .     S
C53   C52    1.38830       .     S
C52   H73    0.94045       .     S
H73   C52    0.94045       .     S
C53   H74    0.96750       .     S
H74   C53    0.96750       .     S
C54   O55    1.31948       .     S
O55   C54    1.31948       .     S
C54   O56    1.21197   1_455     S
O56   C54    1.21197   1_655     S
O55   H80    0.82899       .     S
H80   O55    0.82899       .     S
N57   C58    1.34085       .     S
C58   N57    1.34085       .     S
N57   C62    1.33680       .     S
C62   N57    1.33680       .     S
N57   Ni63   2.21224       .     S
Ni63  N57    2.21224       .     S
C58   C59    1.38773       .     S
C59   C58    1.38773       .     S
C58   H75    0.96879       .     S
H75   C58    0.96879       .     S
C59   C60    1.38281       .     S
C60   C59    1.38281       .     S
C59   H76    0.94773       .     S
H76   C59    0.94773       .     S
C60   C61    1.38451       .     S
C61   C60    1.38451       .     S
C60   H77    0.99326       .     S
H77   C60    0.99326       .     S
C61   C62    1.38957       .     S
C62   C61    1.38957       .     S
C61   H78    0.93873       .     S
H78   C61    0.93873       .     S
C62   H79    0.96020       .     S
H79   C62    0.96020       .     S
Ni63  N82    2.05478       .     S
N82   Ni63   2.05478       .     S
Ni63  N89    2.04310       .     S
N89   Ni63   2.04310       .     S
Ni63  N126   2.21224       .     S
N126  Ni63   2.21224       .     S
N82   C83    1.36930       .     S
C83   N82    1.36930       .     S
N82   C86    1.36984       .     S
C86   N82    1.36984       .     S
C83   C84    1.45028       .     S
C84   C83    1.45028       .     S
C83   C93    1.40820       .     S
C93   C83    1.40820       .     S
C84   C85    1.35303       .     S
C85   C84    1.35303       .     S
C84   H112   0.96225       .     S
H112  C84    0.96225       .     S
C85   C86    1.44480       .     S
C86   C85    1.44480       .     S
C85   H113   0.93483       .     S
H113  C85    0.93483       .     S
C86   C87    1.40504       .     S
C87   C86    1.40504       .     S
C87   C88    1.40435       .     S
C88   C87    1.40435       .     S
C87   C94    1.49897       .     S
C94   C87    1.49897       .     S
C88   C91    1.44268       .     S
C91   C88    1.44268       .     S
N89   C90    1.36703       .     S
C90   N89    1.36703       .     S
C90   C92    1.44623       .     S
C92   C90    1.44623       .     S
C90   C93    1.40877       .     S
C93   C90    1.40877       .     S
C91   H114   0.93941       .     S
H114  C91    0.93941       .     S
C92   H115   0.92991       .     S
H115  C92    0.92991       .     S
C93   C103   1.49621       .     S
C103  C93    1.49621       .     S
C94   C95    1.38506       .     S
C95   C94    1.38506       .     S
C94   C99    1.38268       .     S
C99   C94    1.38268       .     S
C95   C96    1.38606       .     S
C96   C95    1.38606       .     S
C95   H116   0.95814       .     S
H116  C95    0.95814       .     S
C96   C97    1.37672   1_545     S
C97   C96    1.37672   1_565     S
C96   H117   0.99170       .     S
H117  C96    0.99170       .     S
C97   C98    1.38600       .     S
C98   C97    1.38600       .     S
C97   C100   1.49667       .     S
C100  C97    1.49667       .     S
C98   C99    1.38907   1_565     S
C99   C98    1.38907   1_545     S
C98   H118   0.96147       .     S
H118  C98    0.96147       .     S
C99   H119   0.97220       .     S
H119  C99    0.97220       .     S
C100  O101   1.21397       .     S
O101  C100   1.21397       .     S
C100  O102   1.31601       .     S
O102  C100   1.31601       .     S
O102  H125   0.84570       .     S
H125  O102   0.84570       .     S
C103  C104   1.39442       .     S
C104  C103   1.39442       .     S
C103  C108   1.39777       .     S
C108  C103   1.39777       .     S
C104  C105   1.38993       .     S
C105  C104   1.38993       .     S
C104  H120   0.95745       .     S
H120  C104   0.95745       .     S
C105  C106   1.39174       .     S
C106  C105   1.39174       .     S
C105  H121   0.93768       .     S
H121  C105   0.93768       .     S
C106  C107   1.39088       .     S
C107  C106   1.39088       .     S
C106  C109   1.49610       .     S
C109  C106   1.49610       .     S
C107  C108   1.38830       .     S
C108  C107   1.38830       .     S
C107  H122   0.94045       .     S
H122  C107   0.94045       .     S
C108  H123   0.96750       .     S
H123  C108   0.96750       .     S
C109  O110   1.31948       .     S
O110  C109   1.31948       .     S
C109  O111   1.21197   1_655     S
O111  C109   1.21197   1_455     S
O110  H124   0.82899       .     S
H124  O110   0.82899       .     S
N126  C127   1.34085       .     S
C127  N126   1.34085       .     S
N126  C131   1.33680       .     S
C131  N126   1.33680       .     S
C127  C128   1.38773       .     S
C128  C127   1.38773       .     S
C127  H132   0.96879       .     S
H132  C127   0.96879       .     S
C128  C129   1.38281       .     S
C129  C128   1.38281       .     S
C128  H133   0.94773       .     S
H133  C128   0.94773       .     S
C129  C130   1.38451       .     S
C130  C129   1.38451       .     S
C129  H134   0.99326       .     S
H134  C129   0.99326       .     S
C130  C131   1.38957       .     S
C131  C130   1.38957       .     S
C130  H135   0.93873       .     S
H135  C130   0.93873       .     S
C131  H136   0.96020       .     S
H136  C131   0.96020       .     S
N137  C138   1.32829   1_455     S
C138  N137   1.32829   1_655     S
N137  C142   1.32986       .     S
C142  N137   1.32986       .     S
C138  C139   1.37056       .     S
C139  C138   1.37056       .     S
C138  H143   0.95499       .     S
H143  C138   0.95499       .     S
C139  C140   1.37725   1_556     S
C140  C139   1.37725   1_554     S
C139  H144   0.93620       .     S
H144  C139   0.93620       .     S
C140  C141   1.37444   1_654     S
C141  C140   1.37444   1_456     S
C140  H145   0.94599       .     S
H145  C140   0.94599       .     S
C141  C142   1.37032       .     S
C142  C141   1.37032       .     S
C141  H146   0.99166   1_556     S
H146  C141   0.99166   1_554     S
C142  H147   1.01021       .     S
H147  C142   1.01021       .     S
N137  H80    1.80415       .     S
H80   N137   1.80415       .     S
N0    H81    1.78483       .     S
H81   N0     1.78483       .     S
C1    N0     1.33851       .     S
N0    C1     1.33851       .     S
C5    N0     1.33592       .     S
N0    C5     1.33592       .     S
C2    C1     1.37812       .     S
C1    C2     1.37812       .     S
H6    C1     0.99544       .     S
C1    H6     0.99544       .     S
C3    C2     1.37728       .     S
C2    C3     1.37728       .     S
H7    C2     0.93870       .     S
C2    H7     0.93870       .     S
C4    C3     1.38111       .     S
C3    C4     1.38111       .     S
H8    C3     0.96280       .     S
C3    H8     0.96280       .     S
C5    C4     1.38084       .     S
C4    C5     1.38084       .     S
H9    C4     0.91227       .     S
C4    H9     0.91227       .     S
H10   C5     0.95430       .     S
C5    H10    0.95430       .     S
C12   C11    1.46451   1_455     S
C11   C12    1.46451   1_655     S
H16   C11    0.94912       .     S
C11   H16    0.94912       .     S
H17   C11    0.94987   1_455     S
C11   H17    0.94987   1_655     S
H18   C11    0.94973       .     S
C11   H18    0.94973       .     S
O13   C12    1.42024       .     S
C12   O13    1.42024       .     S
H19   C12    0.95078       .     S
C12   H19    0.95078       .     S
H20   C12    0.94996       .     S
C12   H20    0.94996       .     S
C14   O13    1.38975       .     S
O13   C14    1.38975       .     S
C15   C14    1.48710   1_554     S
C14   C15    1.48710   1_556     S
H21   C14    0.94975       .     S
C14   H21    0.94975       .     S
H22   C14    0.95005       .     S
C14   H22    0.95005       .     S
H23   C15    0.95053       .     S
C15   H23    0.95053       .     S
H24   C15    0.95042       .     S
C15   H24    0.95042       .     S
H25   C15    0.94922       .     S
C15   H25    0.94922       .     S
C49   H26    0.95745       .     S
H26   C49    0.95745       .     S
C28   N27    1.36930       .     S
N27   C28    1.36930       .     S
C31   N27    1.36984       .     S
N27   C31    1.36984       .     S
Ni63  N27    2.05478       .     S
N27   Ni63   2.05478       .     S
C29   C28    1.45028       .     S
C28   C29    1.45028       .     S
C38   C28    1.40820       .     S
C28   C38    1.40820       .     S
C30   C29    1.35303       .     S
C29   C30    1.35303       .     S
H64   C29    0.96225       .     S
C29   H64    0.96225       .     S
C31   C30    1.44481       .     S
C30   C31    1.44481       .     S
H65   C30    0.93483       .     S
C30   H65    0.93483       .     S
C32   C31    1.40504       .     S
C31   C32    1.40504       .     S
C33   C32    1.40435       .     S
C32   C33    1.40435       .     S
C39   C32    1.49897       .     S
C32   C39    1.49897       .     S
C36   C33    1.44268       .     S
C33   C36    1.44268       .     S
N89   C33    1.37022       .     S
C33   N89    1.37022       .     S
C35   N34    1.36703       .     S
N34   C35    1.36703       .     S
Ni63  N34    2.04310       .     S
N34   Ni63   2.04310       .     S
C88   N34    1.37022       .     S
N34   C88    1.37022       .     S
C37   C35    1.44623       .     S
C35   C37    1.44623       .     S
C38   C35    1.40877       .     S
C35   C38    1.40877       .     S
H66   C36    0.93941       .     S
C36   H66    0.93941       .     S
C92   C36    1.35104       .     S
C36   C92    1.35104       .     S
H67   C37    0.92991       .     S
C37   H67    0.92991       .     S
C91   C37    1.35104       .     S
C37   C91    1.35104       .     S
C48   C38    1.49621       .     S
C38   C48    1.49621       .     S
C40   C39    1.38506       .     S
C39   C40    1.38506       .     S
C44   C39    1.38268       .     S
C39   C44    1.38268       .     S
C41   C40    1.38606       .     S
C40   C41    1.38606       .     S
H68   C40    0.95814       .     S
C40   H68    0.95814       .     S
C42   C41    1.37672   1_545     S
C41   C42    1.37672   1_565     S
H69   C41    0.99170       .     S
C41   H69    0.99170       .     S
C43   C42    1.38600       .     S
C42   C43    1.38600       .     S
C45   C42    1.49667       .     S
C42   C45    1.49667       .     S
C44   C43    1.38907   1_565     S
C43   C44    1.38907   1_545     S
H70   C43    0.96147       .     S
C43   H70    0.96147       .     S
H71   C44    0.97220       .     S
C44   H71    0.97220       .     S
O46   C45    1.21397       .     S
C45   O46    1.21397       .     S
O47   C45    1.31601       .     S
C45   O47    1.31601       .     S
H81   O47    0.84570       .     S
O47   H81    0.84570       .     S
C49   C48    1.39442       .     S
C48   C49    1.39442       .     S
C53   C48    1.39777       .     S
C48   C53    1.39777       .     S
C50   C49    1.38993       .     S
C49   C50    1.38993       .     S
C51   C50    1.39174       .     S
C50   C51    1.39174       .     S
H72   C50    0.93768       .     S
C50   H72    0.93768       .     S
C52   C51    1.39088       .     S
C51   C52    1.39088       .     S
C54   C51    1.49610       .     S
C51   C54    1.49610       .     S
C53   C52    1.38830       .     S
C52   C53    1.38830       .     S
H73   C52    0.94045       .     S
C52   H73    0.94045       .     S
H74   C53    0.96750       .     S
C53   H74    0.96750       .     S
O55   C54    1.31948       .     S
C54   O55    1.31948       .     S
O56   C54    1.21197   1_655     S
C54   O56    1.21197   1_455     S
H80   O55    0.82899       .     S
O55   H80    0.82899       .     S
C58   N57    1.34085       .     S
N57   C58    1.34085       .     S
C62   N57    1.33680       .     S
N57   C62    1.33680       .     S
Ni63  N57    2.21224       .     S
N57   Ni63   2.21224       .     S
C59   C58    1.38773       .     S
C58   C59    1.38773       .     S
H75   C58    0.96879       .     S
C58   H75    0.96879       .     S
C60   C59    1.38281       .     S
C59   C60    1.38281       .     S
H76   C59    0.94773       .     S
C59   H76    0.94773       .     S
C61   C60    1.38451       .     S
C60   C61    1.38451       .     S
H77   C60    0.99326       .     S
C60   H77    0.99326       .     S
C62   C61    1.38957       .     S
C61   C62    1.38957       .     S
H78   C61    0.93873       .     S
C61   H78    0.93873       .     S
H79   C62    0.96020       .     S
C62   H79    0.96020       .     S
N82   Ni63   2.05478       .     S
Ni63  N82    2.05478       .     S
N89   Ni63   2.04310       .     S
Ni63  N89    2.04310       .     S
N126  Ni63   2.21224       .     S
Ni63  N126   2.21224       .     S
C83   N82    1.36930       .     S
N82   C83    1.36930       .     S
C86   N82    1.36984       .     S
N82   C86    1.36984       .     S
C84   C83    1.45028       .     S
C83   C84    1.45028       .     S
C93   C83    1.40820       .     S
C83   C93    1.40820       .     S
C85   C84    1.35303       .     S
C84   C85    1.35303       .     S
H112  C84    0.96225       .     S
C84   H112   0.96225       .     S
C86   C85    1.44480       .     S
C85   C86    1.44480       .     S
H113  C85    0.93483       .     S
C85   H113   0.93483       .     S
C87   C86    1.40504       .     S
C86   C87    1.40504       .     S
C88   C87    1.40435       .     S
C87   C88    1.40435       .     S
C94   C87    1.49897       .     S
C87   C94    1.49897       .     S
C91   C88    1.44268       .     S
C88   C91    1.44268       .     S
C90   N89    1.36703       .     S
N89   C90    1.36703       .     S
C92   C90    1.44623       .     S
C90   C92    1.44623       .     S
C93   C90    1.40877       .     S
C90   C93    1.40877       .     S
H114  C91    0.93941       .     S
C91   H114   0.93941       .     S
H115  C92    0.92991       .     S
C92   H115   0.92991       .     S
C103  C93    1.49621       .     S
C93   C103   1.49621       .     S
C95   C94    1.38506       .     S
C94   C95    1.38506       .     S
C99   C94    1.38268       .     S
C94   C99    1.38268       .     S
C96   C95    1.38606       .     S
C95   C96    1.38606       .     S
H116  C95    0.95814       .     S
C95   H116   0.95814       .     S
C97   C96    1.37672   1_565     S
C96   C97    1.37672   1_545     S
H117  C96    0.99170       .     S
C96   H117   0.99170       .     S
C98   C97    1.38600       .     S
C97   C98    1.38600       .     S
C100  C97    1.49667       .     S
C97   C100   1.49667       .     S
C99   C98    1.38907   1_545     S
C98   C99    1.38907   1_565     S
H118  C98    0.96147       .     S
C98   H118   0.96147       .     S
H119  C99    0.97220       .     S
C99   H119   0.97220       .     S
O101  C100   1.21397       .     S
C100  O101   1.21397       .     S
O102  C100   1.31601       .     S
C100  O102   1.31601       .     S
H125  O102   0.84570       .     S
O102  H125   0.84570       .     S
C104  C103   1.39442       .     S
C103  C104   1.39442       .     S
C108  C103   1.39777       .     S
C103  C108   1.39777       .     S
C105  C104   1.38993       .     S
C104  C105   1.38993       .     S
H120  C104   0.95745       .     S
C104  H120   0.95745       .     S
C106  C105   1.39174       .     S
C105  C106   1.39174       .     S
H121  C105   0.93768       .     S
C105  H121   0.93768       .     S
C107  C106   1.39088       .     S
C106  C107   1.39088       .     S
C109  C106   1.49610       .     S
C106  C109   1.49610       .     S
C108  C107   1.38830       .     S
C107  C108   1.38830       .     S
H122  C107   0.94045       .     S
C107  H122   0.94045       .     S
H123  C108   0.96750       .     S
C108  H123   0.96750       .     S
O110  C109   1.31948       .     S
C109  O110   1.31948       .     S
O111  C109   1.21197   1_455     S
C109  O111   1.21197   1_655     S
H124  O110   0.82899       .     S
O110  H124   0.82899       .     S
C127  N126   1.34085       .     S
N126  C127   1.34085       .     S
C131  N126   1.33680       .     S
N126  C131   1.33680       .     S
C128  C127   1.38773       .     S
C127  C128   1.38773       .     S
H132  C127   0.96879       .     S
C127  H132   0.96879       .     S
C129  C128   1.38281       .     S
C128  C129   1.38281       .     S
H133  C128   0.94773       .     S
C128  H133   0.94773       .     S
C130  C129   1.38451       .     S
C129  C130   1.38451       .     S
H134  C129   0.99326       .     S
C129  H134   0.99326       .     S
C131  C130   1.38957       .     S
C130  C131   1.38957       .     S
H135  C130   0.93873       .     S
C130  H135   0.93873       .     S
H136  C131   0.96020       .     S
C131  H136   0.96020       .     S
C138  N137   1.32829   1_655     S
N137  C138   1.32829   1_455     S
C142  N137   1.32986       .     S
N137  C142   1.32986       .     S
C139  C138   1.37056       .     S
C138  C139   1.37056       .     S
H143  C138   0.95499       .     S
C138  H143   0.95499       .     S
C140  C139   1.37725   1_554     S
C139  C140   1.37725   1_556     S
H144  C139   0.93620       .     S
C139  H144   0.93620       .     S
C141  C140   1.37444   1_456     S
C140  C141   1.37444   1_654     S
H145  C140   0.94599       .     S
C140  H145   0.94599       .     S
C142  C141   1.37032       .     S
C141  C142   1.37032       .     S
H146  C141   0.99166   1_554     S
C141  H146   0.99166   1_556     S
H147  C142   1.01021       .     S
C142  H147   1.01021       .     S
