data_I
_chemical_name_common  '/data/user2/wty/HOF/MOFDiff/mofdiff/data/test/294-1_4'
_cell_length_a 17.55600
_cell_length_b 17.55600
_cell_length_c 56.93000
_cell_angle_alpha 90.00000
_cell_angle_beta  90.00000
_cell_angle_gamma 90.00000
_space_group_name_H-M_alt      'P 1'


loop_
_space_group_symop_operation_xyz
  'x, y, z' 

loop_
_atom_site_label
_atom_site_fract_x
_atom_site_fract_y
_atom_site_fract_z
_atom_site_type_symbol
Ni0        0.5      0.0   0.5709    Ni
O1       0.784   0.8139  0.70289     O
O2      0.7071   0.6983  0.43744     O
O3      0.8028   0.7881  0.43735     O
O4      0.6916   0.7084  0.70204     O
N5         0.5      0.0  0.53428     N
N6         0.5      0.0  0.60324     N
N7     0.57857  0.91955  0.56935     N
C8      0.6111    0.886   0.5897     C
C9      0.6671   0.8328  0.58229     C
H10     0.6979   0.8022   0.5923     H
C11     0.6692   0.8335  0.55736     C
H12     0.7015   0.8034   0.5477     H
C13     0.6144   0.8871  0.54936     C
C14     0.7275   0.7714  0.69787     C
C15     0.6303   0.7678  0.66267     C
H16     0.6093   0.7226   0.6691     H
C17      0.691   0.8038  0.67378     C
C18     0.7217     0.87   0.6643     C
H19     0.7631   0.8945   0.6719     H
C20     0.6917   0.9002  0.64371     C
H21     0.7127   0.9454   0.6372     H
C22     0.6311   0.8642   0.6326     C
C23     0.6004    0.798  0.64208     C
H24     0.5589   0.7735   0.6345     H
C25     0.7444   0.7567  0.44655     C
C26     0.7125    0.892  0.49978     C
H27     0.7353   0.9354   0.5068     H
C28      0.646   0.8616  0.50918     C
C29     0.6126   0.7981  0.49888     C
H30     0.5672   0.7773   0.5053     H
C31     0.6456    0.765  0.47917     C
H32     0.6227   0.7216   0.4721     H
C33      0.712   0.7954  0.46977     C
C34     0.7455   0.8589  0.48007     C
H35     0.7909   0.8797   0.4736     H
C36     0.5313   0.9755  0.49631     C
H37     0.5578   0.9575   0.4828     H
C38     0.5415   0.9513  0.61869     C
C39      0.524   0.9697  0.64278     C
H40     0.5428   0.9441   0.6563     H
C41     0.5983   0.9076  0.52844     C
C42     0.5485   0.9573  0.52013     C
C43      0.596   0.8902  0.61142     C
O44      0.216   0.1861  0.70289     O
O45     0.2929   0.3017  0.43744     O
O46     0.1972   0.2119  0.43735     O
O47     0.3084   0.2916  0.70204     O
N48    0.42143  0.08045  0.56935     N
C49     0.3889    0.114   0.5897     C
C50     0.3329   0.1672  0.58229     C
H51     0.3021   0.1978   0.5923     H
C52     0.3308   0.1665  0.55736     C
H53     0.2985   0.1966   0.5477     H
C54     0.3856   0.1129  0.54936     C
C55     0.2725   0.2286  0.69787     C
C56     0.3697   0.2322  0.66267     C
H57     0.3907   0.2774   0.6691     H
C58      0.309   0.1962  0.67378     C
C59     0.2783     0.13   0.6643     C
H60     0.2369   0.1055   0.6719     H
C61     0.3083   0.0998  0.64371     C
H62     0.2873   0.0546   0.6372     H
C63     0.3689   0.1358   0.6326     C
C64     0.3996    0.202  0.64208     C
H65     0.4411   0.2265   0.6345     H
C66     0.2556   0.2433  0.44655     C
C67     0.2875    0.108  0.49978     C
H68     0.2647   0.0646   0.5068     H
C69      0.354   0.1384  0.50918     C
C70     0.3874   0.2019  0.49888     C
H71     0.4328   0.2227   0.5053     H
C72     0.3544    0.235  0.47917     C
H73     0.3773   0.2784   0.4721     H
C74      0.288   0.2046  0.46977     C
C75     0.2545   0.1411  0.48007     C
H76     0.2091   0.1203   0.4736     H
C77     0.4687   0.0245  0.49631     C
H78     0.4422   0.0425   0.4828     H
C79     0.4585   0.0487  0.61869     C
C80      0.476   0.0303  0.64278     C
H81     0.4572   0.0559   0.6563     H
C82     0.4017   0.0924  0.52844     C
C83     0.4515   0.0427  0.52013     C
C84      0.404   0.1098  0.61142     C
N85     0.7361   0.8494  0.89538     N
H86     0.7604   0.8219   0.9059     H
H87     0.7556   0.8928   0.8905     H
N88     0.6488   0.7608  0.89564     N
H89      0.675   0.7351   0.9062     H
H90     0.6051   0.7427   0.8904     H
N91     0.6238   0.2113  0.73513     N
H92     0.6295    0.217   0.7199     H
H93     0.5901    0.239   0.7427     H
N94     0.7087   0.1269  0.73641     N
H95     0.7164   0.1305   0.7212     H
H96     0.7354   0.0944   0.7448     H
C97    0.56532  0.84032  0.86142     C
H98     0.5487   0.7914   0.8664     H
C99    0.62897  0.87361  0.87169     C
C100   0.65324  0.94514  0.86437     C
H101    0.6967   0.9679   0.8714     H
C102   0.61387  0.98337  0.84677     C
H103    0.6305   0.0323   0.8418     H
C104   0.55023  0.95008  0.83649     C
C105   0.52596  0.87856  0.84382     C
H106    0.4825   0.8558   0.8368     H
C107    0.6753   0.8273  0.88751     C
C108       0.5      0.0  0.81956     C
C109    0.6623   0.1658   0.7456     C
C110   0.64816   0.0513  0.77394     C
H111    0.6904   0.0279   0.7664     H
C112   0.62597   0.1244  0.76747     C
C113    0.5641  0.15873  0.77844     C
H114     0.549   0.2087    0.774     H
C115   0.52449  0.12002  0.79588     C
H116    0.4822   0.1435   0.8034     H
C117   0.54668  0.04697  0.80235     C
C118   0.60851  0.01263  0.79138     C
H119    0.6237   0.9627   0.7958     H
N120    0.2639   0.1506  0.89538     N
H121    0.2396   0.1781   0.9059     H
H122    0.2444   0.1072   0.8905     H
N123    0.3512   0.2392  0.89564     N
H124     0.325   0.2649   0.9062     H
H125    0.3949   0.2573   0.8904     H
N126    0.3762   0.7887  0.73513     N
H127    0.3705    0.783   0.7199     H
H128    0.4099    0.761   0.7427     H
N129    0.2913   0.8731  0.73641     N
H130    0.2836   0.8695   0.7212     H
H131    0.2646   0.9056   0.7448     H
C132   0.43468  0.15968  0.86142     C
H133    0.4513   0.2086   0.8664     H
C134   0.37103  0.12639  0.87169     C
C135   0.34676  0.05486  0.86437     C
H136    0.3033   0.0321   0.8714     H
C137   0.38613  0.01663  0.84677     C
H138    0.3695   0.9677   0.8418     H
C139   0.44977  0.04992  0.83649     C
C140   0.47404  0.12144  0.84382     C
H141    0.5175   0.1442   0.8368     H
C142    0.3247   0.1727  0.88751     C
C143    0.3377   0.8342   0.7456     C
C144   0.35184   0.9487  0.77394     C
H145    0.3096   0.9721   0.7664     H
C146   0.37403   0.8756  0.76747     C
C147    0.4359  0.84127  0.77844     C
H148     0.451   0.7913    0.774     H
C149   0.47551  0.87998  0.79588     C
H150    0.5178   0.8565   0.8034     H
C151   0.45332  0.95303  0.80235     C
C152   0.39149  0.98737  0.79138     C
H153    0.3763   0.0373   0.7958     H
loop_
_geom_bond_atom_site_label_1
_geom_bond_atom_site_label_2
_geom_bond_distance
_geom_bond_site_symmetry_2
_ccdc_geom_bond_type
Ni0   N5     2.08478       .     S
N5    Ni0    2.08478       .     S
Ni0   N6     1.84111       .     S
N6    Ni0    1.84111       .     S
Ni0   N7     1.97618   1_545     S
N7    Ni0    1.97618   1_565     S
Ni0   N48    1.97618       .     S
N48   Ni0    1.97618       .     S
O1    C14    1.27369       .     S
C14   O1     1.27369       .     S
O2    C25    1.32249       .     S
C25   O2     1.32249       .     S
O3    C25    1.27647       .     S
C25   O3     1.27647       .     S
O4    C14    1.29494       .     S
C14   O4     1.29494       .     S
N5    C42    1.39136   1_545     S
C42   N5     1.39136   1_565     S
N5    C83    1.39136       .     S
C83   N5     1.39136       .     S
N6    C38    1.42669   1_545     S
C38   N6     1.42669   1_565     S
N6    C79    1.42669       .     S
C79   N6     1.42669       .     S
N7    C8     1.41960       .     S
C8    N7     1.41960       .     S
N7    C13    1.41963       .     S
C13   N7     1.41963       .     S
C8    C9     1.42015       .     S
C9    C8     1.42015       .     S
C8    C43    1.26676       .     S
C43   C8     1.26676       .     S
C9    H10    0.95170       .     S
H10   C9     0.95170       .     S
C9    C11    1.41980       .     S
C11   C9     1.41980       .     S
C11   H12    0.95039       .     S
H12   C11    0.95039       .     S
C11   C13    1.42073       .     S
C13   C11    1.42073       .     S
C13   C41    1.27587       .     S
C41   C13    1.27587       .     S
C14   C17    1.61710       .     S
C17   C14    1.61710       .     S
C15   H16    0.94848       .     S
H16   C15    0.94848       .     S
C15   C17    1.39108       .     S
C17   C15    1.39108       .     S
C15   C23    1.38949       .     S
C23   C15    1.38949       .     S
C17   C18    1.39014       .     S
C18   C17    1.39014       .     S
C18   H19    0.94893       .     S
H19   C18    0.94893       .     S
C18   C20    1.39015       .     S
C20   C18    1.39015       .     S
C20   H21    0.95025       .     S
H21   C20    0.95025       .     S
C20   C22    1.38974       .     S
C22   C20    1.38974       .     S
C22   C23    1.39014       .     S
C23   C22    1.39014       .     S
C22   C43    1.42898       .     S
C43   C22    1.42898       .     S
C23   H24    0.94976       .     S
H24   C23    0.94976       .     S
C25   C33    1.59142       .     S
C33   C25    1.59142       .     S
C26   H27    0.94894       .     S
H27   C26    0.94894       .     S
C26   C28    1.39076       .     S
C28   C26    1.39076       .     S
C26   C34    1.39011       .     S
C34   C26    1.39011       .     S
C28   C29    1.38941       .     S
C29   C28    1.38941       .     S
C28   C41    1.59866       .     S
C41   C28    1.59866       .     S
C29   H30    0.94984       .     S
H30   C29    0.94984       .     S
C29   C31    1.39011       .     S
C31   C29    1.39011       .     S
C31   H32    0.95088       .     S
H32   C31    0.95088       .     S
C31   C33    1.38929       .     S
C33   C31    1.38929       .     S
C33   C34    1.39015       .     S
C34   C33    1.39015       .     S
C34   H35    0.95094       .     S
H35   C34    0.95094       .     S
C36   H37    0.95281       .     S
H37   C36    0.95281       .     S
C36   C42    1.42555       .     S
C42   C36    1.42555       .     S
C36   C77    1.39565   1_565     S
C77   C36    1.39565   1_545     S
C38   C39    1.44208       .     S
C39   C38    1.44208       .     S
C38   C43    1.49579       .     S
C43   C38    1.49579       .     S
C39   H40    0.95045       .     S
H40   C39    0.95045       .     S
C39   C80    1.35720   1_565     S
C80   C39    1.35720   1_545     S
C41   C42    1.32269       .     S
C42   C41    1.32269       .     S
O44   C55    1.27369       .     S
C55   O44    1.27369       .     S
O45   C66    1.32249       .     S
C66   O45    1.32249       .     S
O46   C66    1.27647       .     S
C66   O46    1.27647       .     S
O47   C55    1.29495       .     S
C55   O47    1.29495       .     S
N48   C49    1.41960       .     S
C49   N48    1.41960       .     S
N48   C54    1.41963       .     S
C54   N48    1.41963       .     S
C49   C50    1.42015       .     S
C50   C49    1.42015       .     S
C49   C84    1.26676       .     S
C84   C49    1.26676       .     S
C50   H51    0.95170       .     S
H51   C50    0.95170       .     S
C50   C52    1.41980       .     S
C52   C50    1.41980       .     S
C52   H53    0.95039       .     S
H53   C52    0.95039       .     S
C52   C54    1.42074       .     S
C54   C52    1.42074       .     S
C54   C82    1.27587       .     S
C82   C54    1.27587       .     S
C55   C58    1.61710       .     S
C58   C55    1.61710       .     S
C56   H57    0.94848       .     S
H57   C56    0.94848       .     S
C56   C58    1.39108       .     S
C58   C56    1.39108       .     S
C56   C64    1.38949       .     S
C64   C56    1.38949       .     S
C58   C59    1.39014       .     S
C59   C58    1.39014       .     S
C59   H60    0.94893       .     S
H60   C59    0.94893       .     S
C59   C61    1.39015       .     S
C61   C59    1.39015       .     S
C61   H62    0.95025       .     S
H62   C61    0.95025       .     S
C61   C63    1.38973       .     S
C63   C61    1.38973       .     S
C63   C64    1.39014       .     S
C64   C63    1.39014       .     S
C63   C84    1.42898       .     S
C84   C63    1.42898       .     S
C64   H65    0.94976       .     S
H65   C64    0.94976       .     S
C66   C74    1.59142       .     S
C74   C66    1.59142       .     S
C67   H68    0.94894       .     S
H68   C67    0.94894       .     S
C67   C69    1.39076       .     S
C69   C67    1.39076       .     S
C67   C75    1.39011       .     S
C75   C67    1.39011       .     S
C69   C70    1.38941       .     S
C70   C69    1.38941       .     S
C69   C82    1.59866       .     S
C82   C69    1.59866       .     S
C70   H71    0.94984       .     S
H71   C70    0.94984       .     S
C70   C72    1.39011       .     S
C72   C70    1.39011       .     S
C72   H73    0.95088       .     S
H73   C72    0.95088       .     S
C72   C74    1.38929       .     S
C74   C72    1.38929       .     S
C74   C75    1.39015       .     S
C75   C74    1.39015       .     S
C75   H76    0.95094       .     S
H76   C75    0.95094       .     S
C77   H78    0.95281       .     S
H78   C77    0.95281       .     S
C77   C83    1.42555       .     S
C83   C77    1.42555       .     S
C79   C80    1.44208       .     S
C80   C79    1.44208       .     S
C79   C84    1.49579       .     S
C84   C79    1.49579       .     S
C80   H81    0.95045       .     S
H81   C80    0.95045       .     S
C82   C83    1.32269       .     S
C83   C82    1.32269       .     S
N85   H86    0.87964       .     S
H86   N85    0.87964       .     S
N85   H87    0.88030       .     S
H87   N85    0.88030       .     S
N85   C107   1.22091       .     S
C107  N85    1.22091       .     S
N88   H89    0.88123       .     S
H89   N88    0.88123       .     S
N88   H90    0.88236       .     S
H90   N88    0.88236       .     S
N88   C107   1.33928       .     S
C107  N88    1.33928       .     S
N91   H92    0.87852       .     S
H92   N91    0.87852       .     S
N91   H93    0.87878       .     S
H93   N91    0.87878       .     S
N91   C109   1.20425       .     S
C109  N91    1.20425       .     S
N94   H95    0.87867       .     S
H95   N94    0.87867       .     S
N94   H96    0.87944       .     S
H96   N94    0.87944       .     S
N94   C109   1.18477       .     S
C109  N94    1.18477       .     S
C97   H98    0.95033       .     S
H98   C97    0.95033       .     S
C97   C99    1.38999       .     S
C99   C97    1.38999       .     S
C97   C105   1.39001       .     S
C105  C97    1.39001       .     S
C99   C100   1.39003       .     S
C100  C99    1.39003       .     S
C99   C107   1.46072       .     S
C107  C99    1.46072       .     S
C100  H101   0.94973       .     S
H101  C100   0.94973       .     S
C100  C102   1.39001       .     S
C102  C100   1.39001       .     S
C102  H103   0.95037   1_565     S
H103  C102   0.95037   1_545     S
C102  C104   1.39009       .     S
C104  C102   1.39009       .     S
C104  C105   1.39005       .     S
C105  C104   1.39005       .     S
C104  C108   1.57311   1_565     S
C108  C104   1.57311   1_545     S
C105  H106   0.94949       .     S
H106  C105   0.94949       .     S
C108  C117   1.52037       .     S
C117  C108   1.52037       .     S
C108  C139   1.57311       .     S
C139  C108   1.57311       .     S
C108  C151   1.52037   1_545     S
C151  C108   1.52037   1_565     S
C109  C112   1.57646       .     S
C112  C109   1.57646       .     S
C110  H111   0.95024       .     S
H111  C110   0.95024       .     S
C110  C112   1.39083       .     S
C112  C110   1.39083       .     S
C110  C118   1.38968       .     S
C118  C110   1.38968       .     S
C112  C113   1.39035       .     S
C113  C112   1.39035       .     S
C113  H114   0.95067       .     S
H114  C113   0.95067       .     S
C113  C115   1.38967       .     S
C115  C113   1.38967       .     S
C115  H116   0.95101       .     S
H116  C115   0.95101       .     S
C115  C117   1.39002       .     S
C117  C115   1.39002       .     S
C117  C118   1.38988       .     S
C118  C117   1.38988       .     S
C118  H119   0.95016   1_545     S
H119  C118   0.95016   1_565     S
N120  H121   0.87964       .     S
H121  N120   0.87964       .     S
N120  H122   0.88029       .     S
H122  N120   0.88029       .     S
N120  C142   1.22091       .     S
C142  N120   1.22091       .     S
N123  H124   0.88123       .     S
H124  N123   0.88123       .     S
N123  H125   0.88236       .     S
H125  N123   0.88236       .     S
N123  C142   1.33928       .     S
C142  N123   1.33928       .     S
N126  H127   0.87852       .     S
H127  N126   0.87852       .     S
N126  H128   0.87878       .     S
H128  N126   0.87878       .     S
N126  C143   1.20425       .     S
C143  N126   1.20425       .     S
N129  H130   0.87867       .     S
H130  N129   0.87867       .     S
N129  H131   0.87944       .     S
H131  N129   0.87944       .     S
N129  C143   1.18477       .     S
C143  N129   1.18477       .     S
C132  H133   0.95033       .     S
H133  C132   0.95033       .     S
C132  C134   1.38999       .     S
C134  C132   1.38999       .     S
C132  C140   1.39001       .     S
C140  C132   1.39001       .     S
C134  C135   1.39003       .     S
C135  C134   1.39003       .     S
C134  C142   1.46072       .     S
C142  C134   1.46072       .     S
C135  H136   0.94973       .     S
H136  C135   0.94973       .     S
C135  C137   1.39001       .     S
C137  C135   1.39001       .     S
C137  H138   0.95037   1_545     S
H138  C137   0.95037   1_565     S
C137  C139   1.39009       .     S
C139  C137   1.39009       .     S
C139  C140   1.39005       .     S
C140  C139   1.39005       .     S
C140  H141   0.94948       .     S
H141  C140   0.94948       .     S
C143  C146   1.57646       .     S
C146  C143   1.57646       .     S
C144  H145   0.95023       .     S
H145  C144   0.95023       .     S
C144  C146   1.39083       .     S
C146  C144   1.39083       .     S
C144  C152   1.38968       .     S
C152  C144   1.38968       .     S
C146  C147   1.39035       .     S
C147  C146   1.39035       .     S
C147  H148   0.95067       .     S
H148  C147   0.95067       .     S
C147  C149   1.38967       .     S
C149  C147   1.38967       .     S
C149  H150   0.95101       .     S
H150  C149   0.95101       .     S
C149  C151   1.39002       .     S
C151  C149   1.39002       .     S
C151  C152   1.38988       .     S
C152  C151   1.38988       .     S
C152  H153   0.95016   1_565     S
H153  C152   0.95016   1_545     S
N5    Ni0    2.08478       .     S
Ni0   N5     2.08478       .     S
N6    Ni0    1.84111       .     S
Ni0   N6     1.84111       .     S
N7    Ni0    1.97618   1_565     S
Ni0   N7     1.97618   1_545     S
N48   Ni0    1.97618       .     S
Ni0   N48    1.97618       .     S
C14   O1     1.27369       .     S
O1    C14    1.27369       .     S
C25   O2     1.32249       .     S
O2    C25    1.32249       .     S
C25   O3     1.27647       .     S
O3    C25    1.27647       .     S
C14   O4     1.29494       .     S
O4    C14    1.29494       .     S
C42   N5     1.39136   1_565     S
N5    C42    1.39136   1_545     S
C83   N5     1.39136       .     S
N5    C83    1.39136       .     S
C38   N6     1.42669   1_565     S
N6    C38    1.42669   1_545     S
C79   N6     1.42669       .     S
N6    C79    1.42669       .     S
C8    N7     1.41960       .     S
N7    C8     1.41960       .     S
C13   N7     1.41963       .     S
N7    C13    1.41963       .     S
C9    C8     1.42015       .     S
C8    C9     1.42015       .     S
C43   C8     1.26676       .     S
C8    C43    1.26676       .     S
H10   C9     0.95170       .     S
C9    H10    0.95170       .     S
C11   C9     1.41980       .     S
C9    C11    1.41980       .     S
H12   C11    0.95039       .     S
C11   H12    0.95039       .     S
C13   C11    1.42073       .     S
C11   C13    1.42073       .     S
C41   C13    1.27587       .     S
C13   C41    1.27587       .     S
C17   C14    1.61710       .     S
C14   C17    1.61710       .     S
H16   C15    0.94848       .     S
C15   H16    0.94848       .     S
C17   C15    1.39108       .     S
C15   C17    1.39108       .     S
C23   C15    1.38949       .     S
C15   C23    1.38949       .     S
C18   C17    1.39014       .     S
C17   C18    1.39014       .     S
H19   C18    0.94893       .     S
C18   H19    0.94893       .     S
C20   C18    1.39015       .     S
C18   C20    1.39015       .     S
H21   C20    0.95025       .     S
C20   H21    0.95025       .     S
C22   C20    1.38974       .     S
C20   C22    1.38974       .     S
C23   C22    1.39014       .     S
C22   C23    1.39014       .     S
C43   C22    1.42898       .     S
C22   C43    1.42898       .     S
H24   C23    0.94976       .     S
C23   H24    0.94976       .     S
C33   C25    1.59142       .     S
C25   C33    1.59142       .     S
H27   C26    0.94894       .     S
C26   H27    0.94894       .     S
C28   C26    1.39076       .     S
C26   C28    1.39076       .     S
C34   C26    1.39011       .     S
C26   C34    1.39011       .     S
C29   C28    1.38941       .     S
C28   C29    1.38941       .     S
C41   C28    1.59866       .     S
C28   C41    1.59866       .     S
H30   C29    0.94984       .     S
C29   H30    0.94984       .     S
C31   C29    1.39011       .     S
C29   C31    1.39011       .     S
H32   C31    0.95088       .     S
C31   H32    0.95088       .     S
C33   C31    1.38929       .     S
C31   C33    1.38929       .     S
C34   C33    1.39015       .     S
C33   C34    1.39015       .     S
H35   C34    0.95094       .     S
C34   H35    0.95094       .     S
H37   C36    0.95281       .     S
C36   H37    0.95281       .     S
C42   C36    1.42555       .     S
C36   C42    1.42555       .     S
C77   C36    1.39565   1_545     S
C36   C77    1.39565   1_565     S
C39   C38    1.44208       .     S
C38   C39    1.44208       .     S
C43   C38    1.49579       .     S
C38   C43    1.49579       .     S
H40   C39    0.95045       .     S
C39   H40    0.95045       .     S
C80   C39    1.35720   1_545     S
C39   C80    1.35720   1_565     S
C42   C41    1.32269       .     S
C41   C42    1.32269       .     S
C55   O44    1.27369       .     S
O44   C55    1.27369       .     S
C66   O45    1.32249       .     S
O45   C66    1.32249       .     S
C66   O46    1.27647       .     S
O46   C66    1.27647       .     S
C55   O47    1.29495       .     S
O47   C55    1.29495       .     S
C49   N48    1.41960       .     S
N48   C49    1.41960       .     S
C54   N48    1.41963       .     S
N48   C54    1.41963       .     S
C50   C49    1.42015       .     S
C49   C50    1.42015       .     S
C84   C49    1.26676       .     S
C49   C84    1.26676       .     S
H51   C50    0.95170       .     S
C50   H51    0.95170       .     S
C52   C50    1.41980       .     S
C50   C52    1.41980       .     S
H53   C52    0.95039       .     S
C52   H53    0.95039       .     S
C54   C52    1.42074       .     S
C52   C54    1.42074       .     S
C82   C54    1.27587       .     S
C54   C82    1.27587       .     S
C58   C55    1.61710       .     S
C55   C58    1.61710       .     S
H57   C56    0.94848       .     S
C56   H57    0.94848       .     S
C58   C56    1.39108       .     S
C56   C58    1.39108       .     S
C64   C56    1.38949       .     S
C56   C64    1.38949       .     S
C59   C58    1.39014       .     S
C58   C59    1.39014       .     S
H60   C59    0.94893       .     S
C59   H60    0.94893       .     S
C61   C59    1.39015       .     S
C59   C61    1.39015       .     S
H62   C61    0.95025       .     S
C61   H62    0.95025       .     S
C63   C61    1.38973       .     S
C61   C63    1.38973       .     S
C64   C63    1.39014       .     S
C63   C64    1.39014       .     S
C84   C63    1.42898       .     S
C63   C84    1.42898       .     S
H65   C64    0.94976       .     S
C64   H65    0.94976       .     S
C74   C66    1.59142       .     S
C66   C74    1.59142       .     S
H68   C67    0.94894       .     S
C67   H68    0.94894       .     S
C69   C67    1.39076       .     S
C67   C69    1.39076       .     S
C75   C67    1.39011       .     S
C67   C75    1.39011       .     S
C70   C69    1.38941       .     S
C69   C70    1.38941       .     S
C82   C69    1.59866       .     S
C69   C82    1.59866       .     S
H71   C70    0.94984       .     S
C70   H71    0.94984       .     S
C72   C70    1.39011       .     S
C70   C72    1.39011       .     S
H73   C72    0.95088       .     S
C72   H73    0.95088       .     S
C74   C72    1.38929       .     S
C72   C74    1.38929       .     S
C75   C74    1.39015       .     S
C74   C75    1.39015       .     S
H76   C75    0.95094       .     S
C75   H76    0.95094       .     S
H78   C77    0.95281       .     S
C77   H78    0.95281       .     S
C83   C77    1.42555       .     S
C77   C83    1.42555       .     S
C80   C79    1.44208       .     S
C79   C80    1.44208       .     S
C84   C79    1.49579       .     S
C79   C84    1.49579       .     S
H81   C80    0.95045       .     S
C80   H81    0.95045       .     S
C83   C82    1.32269       .     S
C82   C83    1.32269       .     S
H86   N85    0.87964       .     S
N85   H86    0.87964       .     S
H87   N85    0.88030       .     S
N85   H87    0.88030       .     S
C107  N85    1.22091       .     S
N85   C107   1.22091       .     S
H89   N88    0.88123       .     S
N88   H89    0.88123       .     S
H90   N88    0.88236       .     S
N88   H90    0.88236       .     S
C107  N88    1.33928       .     S
N88   C107   1.33928       .     S
H92   N91    0.87852       .     S
N91   H92    0.87852       .     S
H93   N91    0.87878       .     S
N91   H93    0.87878       .     S
C109  N91    1.20425       .     S
N91   C109   1.20425       .     S
H95   N94    0.87867       .     S
N94   H95    0.87867       .     S
H96   N94    0.87944       .     S
N94   H96    0.87944       .     S
C109  N94    1.18477       .     S
N94   C109   1.18477       .     S
H98   C97    0.95033       .     S
C97   H98    0.95033       .     S
C99   C97    1.38999       .     S
C97   C99    1.38999       .     S
C105  C97    1.39001       .     S
C97   C105   1.39001       .     S
C100  C99    1.39003       .     S
C99   C100   1.39003       .     S
C107  C99    1.46072       .     S
C99   C107   1.46072       .     S
H101  C100   0.94973       .     S
C100  H101   0.94973       .     S
C102  C100   1.39001       .     S
C100  C102   1.39001       .     S
H103  C102   0.95037   1_545     S
C102  H103   0.95037   1_565     S
C104  C102   1.39009       .     S
C102  C104   1.39009       .     S
C105  C104   1.39005       .     S
C104  C105   1.39005       .     S
C108  C104   1.57311   1_545     S
C104  C108   1.57311   1_565     S
H106  C105   0.94949       .     S
C105  H106   0.94949       .     S
C117  C108   1.52037       .     S
C108  C117   1.52037       .     S
C139  C108   1.57311       .     S
C108  C139   1.57311       .     S
C151  C108   1.52037   1_565     S
C108  C151   1.52037   1_545     S
C112  C109   1.57646       .     S
C109  C112   1.57646       .     S
H111  C110   0.95024       .     S
C110  H111   0.95024       .     S
C112  C110   1.39083       .     S
C110  C112   1.39083       .     S
C118  C110   1.38968       .     S
C110  C118   1.38968       .     S
C113  C112   1.39035       .     S
C112  C113   1.39035       .     S
H114  C113   0.95067       .     S
C113  H114   0.95067       .     S
C115  C113   1.38967       .     S
C113  C115   1.38967       .     S
H116  C115   0.95101       .     S
C115  H116   0.95101       .     S
C117  C115   1.39002       .     S
C115  C117   1.39002       .     S
C118  C117   1.38988       .     S
C117  C118   1.38988       .     S
H119  C118   0.95016   1_565     S
C118  H119   0.95016   1_545     S
H121  N120   0.87964       .     S
N120  H121   0.87964       .     S
H122  N120   0.88029       .     S
N120  H122   0.88029       .     S
C142  N120   1.22091       .     S
N120  C142   1.22091       .     S
H124  N123   0.88123       .     S
N123  H124   0.88123       .     S
H125  N123   0.88236       .     S
N123  H125   0.88236       .     S
C142  N123   1.33928       .     S
N123  C142   1.33928       .     S
H127  N126   0.87852       .     S
N126  H127   0.87852       .     S
H128  N126   0.87878       .     S
N126  H128   0.87878       .     S
C143  N126   1.20425       .     S
N126  C143   1.20425       .     S
H130  N129   0.87867       .     S
N129  H130   0.87867       .     S
H131  N129   0.87944       .     S
N129  H131   0.87944       .     S
C143  N129   1.18477       .     S
N129  C143   1.18477       .     S
H133  C132   0.95033       .     S
C132  H133   0.95033       .     S
C134  C132   1.38999       .     S
C132  C134   1.38999       .     S
C140  C132   1.39001       .     S
C132  C140   1.39001       .     S
C135  C134   1.39003       .     S
C134  C135   1.39003       .     S
C142  C134   1.46072       .     S
C134  C142   1.46072       .     S
H136  C135   0.94973       .     S
C135  H136   0.94973       .     S
C137  C135   1.39001       .     S
C135  C137   1.39001       .     S
H138  C137   0.95037   1_565     S
C137  H138   0.95037   1_545     S
C139  C137   1.39009       .     S
C137  C139   1.39009       .     S
C140  C139   1.39005       .     S
C139  C140   1.39005       .     S
H141  C140   0.94948       .     S
C140  H141   0.94948       .     S
C146  C143   1.57646       .     S
C143  C146   1.57646       .     S
H145  C144   0.95023       .     S
C144  H145   0.95023       .     S
C146  C144   1.39083       .     S
C144  C146   1.39083       .     S
C152  C144   1.38968       .     S
C144  C152   1.38968       .     S
C147  C146   1.39035       .     S
C146  C147   1.39035       .     S
H148  C147   0.95067       .     S
C147  H148   0.95067       .     S
C149  C147   1.38967       .     S
C147  C149   1.38967       .     S
H150  C149   0.95101       .     S
C149  H150   0.95101       .     S
C151  C149   1.39002       .     S
C149  C151   1.39002       .     S
C152  C151   1.38988       .     S
C151  C152   1.38988       .     S
H153  C152   0.95016   1_545     S
C152  H153   0.95016   1_565     S
