data_I
_chemical_name_common  '/data/user2/wty/HOF/MOFDiff/mofdiff/data/test/294-4_bpy_dmso_acetone'
_cell_length_a 11.47610
_cell_length_b 28.76170
_cell_length_c 11.75310
_cell_angle_alpha 90.00000
_cell_angle_beta  115.31000
_cell_angle_gamma 90.00000
_space_group_name_H-M_alt      'P 1'


loop_
_space_group_symop_operation_xyz
  'x, y, z' 

loop_
_atom_site_label
_atom_site_fract_x
_atom_site_fract_y
_atom_site_fract_z
_atom_site_type_symbol
O0     0.81563   0.7502  0.76538     O
S1     0.92531  0.76978  0.88153     S
C2     0.99706  0.72127   0.9829     C
C3      0.0521  0.78189  0.83579     C
H4       0.018   0.6987   0.9357     H
H5      0.1282   0.7902   0.9088     H
H6      0.9338   0.7089   0.0118     H
H7      0.0744   0.7314   0.0532     H
H8       0.025   0.8071   0.7747     H
H9      0.0666   0.7541   0.7934     H
O10     0.4135  0.49539   0.6454     O
C11     0.2772  0.48266   0.4318     C
C12     0.3779  0.46919   0.5548     C
C13     0.4136  0.41882   0.5718     C
H14     0.2996   0.4731   0.3659     H
H15     0.2633   0.5159   0.4239     H
H16     0.1954   0.4686    0.417     H
H17     0.4123   0.4048   0.4943     H
H18     0.4981   0.4182   0.6366     H
H19     0.3573   0.4018   0.5985     H
O20    0.74886  0.69022  0.07026     O
N21    0.90643  0.44323  0.89602     N
C22    0.81816  0.41567  0.91401     C
C23    0.77832  0.37822  0.82286     C
C24    0.84516   0.3831  0.75293     C
C25    0.92556  0.42392   0.7992     C
C26    0.01059   0.4408  0.75075     C
C27    0.08823  0.48059  0.79302     C
N28    0.09118   0.5104  0.88496     N
C29    0.18599  0.54233  0.90188     C
C30    0.24271  0.53293  0.81589     C
C31      0.183  0.49473  0.74903     C
C32    0.02527  0.41229  0.65117     C
C33    0.08256  0.36847  0.68179     C
C34     0.0997  0.34154  0.59169     C
C35    0.05695  0.35794  0.46877     C
C36    0.99869  0.40148  0.43727     C
C37    0.98413  0.42862  0.52826     C
C38    0.06836  0.32956  0.36813     C
O39    0.15746  0.29645  0.41101     O
O40    0.00263  0.33667  0.25679     O
C41    0.22729  0.57743  0.99374     C
C42    0.33297  0.60914  0.99895     C
C43    0.30614  0.65525  0.95985     C
C44    0.40514  0.68597  0.97572     C
C45    0.53227  0.67051  0.02702     C
C46    0.55921  0.62406  0.06058     C
C47    0.46062  0.59371  0.04853     C
C48    0.64061  0.70323  0.04889     C
O49    0.60759  0.74714   0.0428     O
N50    0.84194  0.54697  0.89148     N
C51    0.72135  0.53488  0.86804     C
C52    0.61722  0.56454  0.81496     C
C53    0.63627  0.60943   0.7817     C
C54    0.76146  0.62219  0.80474     C
C55    0.86041  0.59018  0.85935     C
C56    0.52544  0.64152  0.72421     C
C57    0.40141  0.62404  0.65263     C
C58    0.29884  0.65464   0.6045     C
N59      0.312  0.70034  0.62416     N
C60    0.43086  0.71725  0.69166     C
C61    0.53954  0.68953  0.74195     C
Ni62       0.0      0.5      0.0    Ni
H63     0.7177   0.3533   0.8145     H
H64     0.8417   0.3629   0.6866     H
H65     0.3099   0.5504   0.8103     H
H66     0.1996   0.4796   0.6833     H
H67     0.1115   0.3577   0.7655     H
H68     0.1403   0.3114   0.6155     H
H69     0.9687   0.4129   0.3512     H
H70     0.9455   0.4595   0.5063     H
H71     0.2193   0.6665   0.9234     H
H72      0.386   0.7186   0.9515     H
H73     0.6481   0.6139   0.0944     H
H74     0.4819   0.5623   0.0787     H
H75      0.708   0.5037   0.8899     H
H76     0.5319   0.5546   0.8046     H
H77     0.7801   0.6526   0.7837     H
H78     0.9475   0.5983   0.8763     H
H79     0.3871   0.5923   0.6337     H
H80     0.2144   0.6428   0.5564     H
H81     0.4408   0.7494   0.7089     H
H82     0.6217   0.7029   0.7875     H
H83      0.163   0.2825   0.3509     H
H84      0.673   0.7637     0.06     H
N85    0.09357  0.55677  0.10398     N
C86    0.18184  0.58433  0.08599     C
C87    0.22168  0.62178  0.17714     C
C88    0.15484   0.6169  0.24707     C
C89    0.07444  0.57608   0.2008     C
C90    0.98941   0.5592  0.24925     C
C91    0.91177  0.51941  0.20698     C
N92    0.90882   0.4896  0.11504     N
C93    0.81401  0.45767  0.09812     C
C94    0.75729  0.46707  0.18411     C
C95      0.817  0.50527  0.25097     C
C96    0.97473  0.58771  0.34883     C
C97    0.91744  0.63153  0.31821     C
C98     0.9003  0.65846  0.40831     C
C99    0.94305  0.64206  0.53123     C
C100   0.00131  0.59852  0.56273     C
C101   0.01587  0.57138  0.47174     C
C102   0.93164  0.67044  0.63187     C
O103   0.84254  0.70355  0.58899     O
O104   0.99737  0.66333  0.74321     O
C105   0.77271  0.42257  0.00626     C
C106   0.66703  0.39086  0.00105     C
C107   0.69386  0.34475  0.04015     C
C108   0.59486  0.31403  0.02428     C
C109   0.46773  0.32949  0.97298     C
C110   0.44079  0.37594  0.93942     C
C111   0.53938  0.40629  0.95147     C
C112   0.35939  0.29677  0.95111     C
O113   0.39241  0.25286   0.9572     O
O114   0.25114  0.30978  0.92974     O
H115    0.2823   0.6467   0.1855     H
H116    0.1583   0.6371   0.3134     H
H117    0.6901   0.4496   0.1897     H
H118    0.8004   0.5204   0.3167     H
H119    0.8885   0.6423   0.2345     H
H120    0.8597   0.6886   0.3845     H
H121    0.0313   0.5871   0.6488     H
H122    0.0545   0.5405   0.4937     H
H123    0.7807   0.3335   0.0766     H
H124     0.614   0.2814   0.0485     H
H125    0.3519   0.3861   0.9056     H
H126    0.5181   0.4377   0.9213     H
H127     0.837   0.7175   0.6491     H
H128     0.327   0.2363     0.94     H
N129   0.15806  0.45303  0.10852     N
C130   0.27865  0.46512  0.13196     C
C131   0.38278  0.43546  0.18504     C
C132   0.36373  0.39057   0.2183     C
C133   0.23854  0.37781  0.19526     C
C134   0.13959  0.40982  0.14065     C
C135   0.47456  0.35848  0.27579     C
C136   0.59859  0.37596  0.34737     C
C137   0.70116  0.34536   0.3955     C
N138     0.688  0.29966  0.37584     N
C139   0.56914  0.28275  0.30834     C
C140   0.46046  0.31047  0.25805     C
H141     0.292   0.4963   0.1101     H
H142    0.4681   0.4454   0.1954     H
H143    0.2199   0.3474   0.2163     H
H144    0.0525   0.4017   0.1237     H
H145    0.6129   0.4077   0.3663     H
H146    0.7856   0.3572   0.4436     H
H147    0.5592   0.2506   0.2911     H
H148    0.3783   0.2971   0.2125     H
loop_
_geom_bond_atom_site_label_1
_geom_bond_atom_site_label_2
_geom_bond_distance
_geom_bond_site_symmetry_2
_ccdc_geom_bond_type
H127  O0     1.76040       .     S
O0    H127   1.76040       .     S
O0    S1     1.51520       .     S
S1    O0     1.51520       .     S
S1    C2     1.79034       .     S
C2    S1     1.79034       .     S
S1    C3     1.78783   1_655     S
C3    S1     1.78783   1_455     S
C2    H4     0.94914   1_655     S
H4    C2     0.94914   1_455     S
C2    H6     0.98987   1_556     S
H6    C2     0.98987   1_554     S
C2    H7     0.96348   1_656     S
H7    C2     0.96348   1_454     S
C3    H5     0.95676       .     S
H5    C3     0.95676       .     S
C3    H8     0.97317       .     S
H8    C3     0.97317       .     S
C3    H9     0.99280       .     S
H9    C3     0.99280       .     S
O10   C12    1.22338       .     S
C12   O10    1.22338       .     S
C11   C12    1.46527       .     S
C12   C11    1.46527       .     S
C11   H14    0.95489       .     S
H14   C11    0.95489       .     S
C11   H15    0.96717       .     S
H15   C11    0.96717       .     S
C11   H16    0.96717       .     S
H16   C11    0.96717       .     S
C12   C13    1.49552       .     S
C13   C12    1.49552       .     S
C13   H17    0.99039       .     S
H17   C13    0.99039       .     S
C13   H18    0.94300       .     S
H18   C13    0.94300       .     S
C13   H19    0.96380       .     S
H19   C13    0.96380       .     S
O20   C48    1.21639       .     S
C48   O20    1.21639       .     S
N21   C22    1.37198       .     S
C22   N21    1.37198       .     S
N21   C25    1.36571       .     S
C25   N21    1.36571       .     S
N21   Ni62   2.04709   1_656     S
Ni62  N21    2.04709   1_454     S
C22   C23    1.44849       .     S
C23   C22    1.44849       .     S
C22   C105   1.40375   1_556     S
C105  C22    1.40375   1_554     S
C23   C24    1.35005       .     S
C24   C23    1.35005       .     S
C23   H63    0.97411       .     S
H63   C23    0.97411       .     S
C24   C25    1.44791       .     S
C25   C24    1.44791       .     S
C24   H64    0.95938       .     S
H64   C24    0.95938       .     S
C25   C26    1.40971   1_655     S
C26   C25    1.40971   1_455     S
C26   C27    1.40426       .     S
C27   C26    1.40426       .     S
C26   C32    1.49638       .     S
C32   C26    1.49638       .     S
C27   N28    1.36844       .     S
N28   C27    1.36844       .     S
C27   C31    1.44788       .     S
C31   C27    1.44788       .     S
N28   C29    1.37178       .     S
C29   N28    1.37178       .     S
N28   Ni62   2.05480   1_556     S
Ni62  N28    2.05480   1_554     S
C29   C30    1.44246       .     S
C30   C29    1.44246       .     S
C29   C41    1.40424       .     S
C41   C29    1.40424       .     S
C30   C31    1.35417       .     S
C31   C30    1.35417       .     S
C30   H65    0.94587       .     S
H65   C30    0.94587       .     S
C31   H66    0.97381       .     S
H66   C31    0.97381       .     S
C32   C33    1.39568       .     S
C33   C32    1.39568       .     S
C32   C37    1.39540   1_455     S
C37   C32    1.39540   1_655     S
C33   C34    1.39216       .     S
C34   C33    1.39216       .     S
C33   H67    0.94596       .     S
H67   C33    0.94596       .     S
C34   C35    1.39438       .     S
C35   C34    1.39438       .     S
C34   H68    0.96716       .     S
H68   C34    0.96716       .     S
C35   C36    1.39307   1_455     S
C36   C35    1.39307   1_655     S
C35   C38    1.48827       .     S
C38   C35    1.48827       .     S
C36   C37    1.39057       .     S
C37   C36    1.39057       .     S
C36   H69    0.97569       .     S
H69   C36    0.97569       .     S
C37   H70    0.97680       .     S
H70   C37    0.97680       .     S
C38   O39    1.32883       .     S
O39   C38    1.32883       .     S
C38   O40    1.21624       .     S
O40   C38    1.21624       .     S
O39   H83    0.83818       .     S
H83   O39    0.83818       .     S
C41   C42    1.49764       .     S
C42   C41    1.49764       .     S
C41   C86    1.40375   1_556     S
C86   C41    1.40375   1_554     S
C42   C43    1.39421       .     S
C43   C42    1.39421       .     S
C42   C47    1.39736   1_556     S
C47   C42    1.39736   1_554     S
C43   C44    1.38747       .     S
C44   C43    1.38747       .     S
C43   H71    0.95727       .     S
H71   C43    0.95727       .     S
C44   C45    1.39200   1_556     S
C45   C44    1.39200   1_554     S
C44   H72    0.97805       .     S
H72   C44    0.97805       .     S
C45   C46    1.38987       .     S
C46   C45    1.38987       .     S
C45   C48    1.49141       .     S
C48   C45    1.49141       .     S
C46   C47    1.38750       .     S
C47   C46    1.38750       .     S
C46   H73    0.96815       .     S
H73   C46    0.96815       .     S
C47   H74    0.96305       .     S
H74   C47    0.96305       .     S
C48   O49    1.31168       .     S
O49   C48    1.31168       .     S
O49   H84    0.83753       .     S
H84   O49    0.83753       .     S
N50   C51    1.33642       .     S
C51   N50    1.33642       .     S
N50   C55    1.34183       .     S
C55   N50    1.34183       .     S
N50   Ni62   2.18264   1_656     S
Ni62  N50    2.18264   1_454     S
C51   C52    1.38114       .     S
C52   C51    1.38114       .     S
C51   H75    0.96300       .     S
H75   C51    0.96300       .     S
C52   C53    1.39307       .     S
C53   C52    1.39307       .     S
C52   H76    0.97639       .     S
H76   C52    0.97639       .     S
C53   C54    1.39264       .     S
C54   C53    1.39264       .     S
C53   C56    1.48031       .     S
C56   C53    1.48031       .     S
C54   C55    1.38776       .     S
C55   C54    1.38776       .     S
C54   H77    0.95767       .     S
H77   C54    0.95767       .     S
C55   H78    0.96067       .     S
H78   C55    0.96067       .     S
C56   C57    1.40095       .     S
C57   C56    1.40095       .     S
C56   C61    1.39555       .     S
C61   C56    1.39555       .     S
C57   C58    1.38232       .     S
C58   C57    1.38232       .     S
C57   H79    0.93734       .     S
H79   C57    0.93734       .     S
C58   N59    1.33193       .     S
N59   C58    1.33193       .     S
C58   H80    0.95194       .     S
H80   C58    0.95194       .     S
N59   C60    1.34212       .     S
C60   N59    1.34212       .     S
C60   C61    1.38212       .     S
C61   C60    1.38212       .     S
C60   H81    0.94306       .     S
H81   C60    0.94306       .     S
C61   H82    0.94440       .     S
H82   C61    0.94440       .     S
Ni62  N85    2.04709       .     S
N85   Ni62   2.04709       .     S
Ni62  N92    2.05480   1_455     S
N92   Ni62   2.05480   1_655     S
Ni62  N129   2.18264       .     S
N129  Ni62   2.18264       .     S
N85   C86    1.37198       .     S
C86   N85    1.37198       .     S
N85   C89    1.36571       .     S
C89   N85    1.36571       .     S
C86   C87    1.44849       .     S
C87   C86    1.44849       .     S
C87   C88    1.35005       .     S
C88   C87    1.35005       .     S
C87   H115   0.97411       .     S
H115  C87    0.97411       .     S
C88   C89    1.44791       .     S
C89   C88    1.44791       .     S
C88   H116   0.95938       .     S
H116  C88    0.95938       .     S
C89   C90    1.40971   1_455     S
C90   C89    1.40971   1_655     S
C90   C91    1.40426       .     S
C91   C90    1.40426       .     S
C90   C96    1.49638       .     S
C96   C90    1.49638       .     S
C91   N92    1.36844       .     S
N92   C91    1.36844       .     S
C91   C95    1.44788       .     S
C95   C91    1.44788       .     S
N92   C93    1.37178       .     S
C93   N92    1.37178       .     S
C93   C94    1.44246       .     S
C94   C93    1.44246       .     S
C93   C105   1.40424       .     S
C105  C93    1.40424       .     S
C94   C95    1.35417       .     S
C95   C94    1.35417       .     S
C94   H117   0.94587       .     S
H117  C94    0.94587       .     S
C95   H118   0.97381       .     S
H118  C95    0.97381       .     S
C96   C97    1.39568       .     S
C97   C96    1.39568       .     S
C96   C101   1.39540   1_655     S
C101  C96    1.39540   1_455     S
C97   C98    1.39216       .     S
C98   C97    1.39216       .     S
C97   H119   0.94596       .     S
H119  C97    0.94596       .     S
C98   C99    1.39438       .     S
C99   C98    1.39438       .     S
C98   H120   0.96716       .     S
H120  C98    0.96716       .     S
C99   C100   1.39307   1_655     S
C100  C99    1.39307   1_455     S
C99   C102   1.48827       .     S
C102  C99    1.48827       .     S
C100  C101   1.39057       .     S
C101  C100   1.39057       .     S
C100  H121   0.97569       .     S
H121  C100   0.97569       .     S
C101  H122   0.97681       .     S
H122  C101   0.97681       .     S
C102  O103   1.32883       .     S
O103  C102   1.32883       .     S
C102  O104   1.21624       .     S
O104  C102   1.21624       .     S
O103  H127   0.83818       .     S
H127  O103   0.83818       .     S
C105  C106   1.49764       .     S
C106  C105   1.49764       .     S
C106  C107   1.39421       .     S
C107  C106   1.39421       .     S
C106  C111   1.39736   1_554     S
C111  C106   1.39736   1_556     S
C107  C108   1.38747       .     S
C108  C107   1.38747       .     S
C107  H123   0.95727       .     S
H123  C107   0.95727       .     S
C108  C109   1.39200   1_554     S
C109  C108   1.39200   1_556     S
C108  H124   0.97805       .     S
H124  C108   0.97805       .     S
C109  C110   1.38987       .     S
C110  C109   1.38987       .     S
C109  C112   1.49141       .     S
C112  C109   1.49141       .     S
C110  C111   1.38750       .     S
C111  C110   1.38750       .     S
C110  H125   0.96815       .     S
H125  C110   0.96815       .     S
C111  H126   0.96305       .     S
H126  C111   0.96305       .     S
C112  O113   1.31168       .     S
O113  C112   1.31168       .     S
C112  O114   1.21639       .     S
O114  C112   1.21639       .     S
O113  H128   0.83753       .     S
H128  O113   0.83753       .     S
N129  C130   1.33642       .     S
C130  N129   1.33642       .     S
N129  C134   1.34183       .     S
C134  N129   1.34183       .     S
C130  C131   1.38113       .     S
C131  C130   1.38113       .     S
C130  H141   0.96300       .     S
H141  C130   0.96300       .     S
C131  C132   1.39307       .     S
C132  C131   1.39307       .     S
C131  H142   0.97639       .     S
H142  C131   0.97639       .     S
C132  C133   1.39264       .     S
C133  C132   1.39264       .     S
C132  C135   1.48031       .     S
C135  C132   1.48031       .     S
C133  C134   1.38776       .     S
C134  C133   1.38776       .     S
C133  H143   0.95767       .     S
H143  C133   0.95767       .     S
C134  H144   0.96067       .     S
H144  C134   0.96067       .     S
C135  C136   1.40095       .     S
C136  C135   1.40095       .     S
C135  C140   1.39555       .     S
C140  C135   1.39555       .     S
C136  C137   1.38232       .     S
C137  C136   1.38232       .     S
C136  H145   0.93734       .     S
H145  C136   0.93734       .     S
C137  N138   1.33193       .     S
N138  C137   1.33193       .     S
C137  H146   0.95194       .     S
H146  C137   0.95194       .     S
N138  C139   1.34212       .     S
C139  N138   1.34212       .     S
C139  C140   1.38212       .     S
C140  C139   1.38212       .     S
C139  H147   0.94306       .     S
H147  C139   0.94306       .     S
C140  H148   0.94440       .     S
H148  C140   0.94440       .     S
O0    H127   1.76040       .     S
H127  O0     1.76040       .     S
S1    O0     1.51520       .     S
O0    S1     1.51520       .     S
C2    S1     1.79034       .     S
S1    C2     1.79034       .     S
C3    S1     1.78783   1_455     S
S1    C3     1.78783   1_655     S
H4    C2     0.94914   1_455     S
C2    H4     0.94914   1_655     S
H6    C2     0.98987   1_554     S
C2    H6     0.98987   1_556     S
H7    C2     0.96348   1_454     S
C2    H7     0.96348   1_656     S
H5    C3     0.95676       .     S
C3    H5     0.95676       .     S
H8    C3     0.97317       .     S
C3    H8     0.97317       .     S
H9    C3     0.99280       .     S
C3    H9     0.99280       .     S
C12   O10    1.22338       .     S
O10   C12    1.22338       .     S
C12   C11    1.46527       .     S
C11   C12    1.46527       .     S
H14   C11    0.95489       .     S
C11   H14    0.95489       .     S
H15   C11    0.96717       .     S
C11   H15    0.96717       .     S
H16   C11    0.96717       .     S
C11   H16    0.96717       .     S
C13   C12    1.49552       .     S
C12   C13    1.49552       .     S
H17   C13    0.99039       .     S
C13   H17    0.99039       .     S
H18   C13    0.94300       .     S
C13   H18    0.94300       .     S
H19   C13    0.96380       .     S
C13   H19    0.96380       .     S
C48   O20    1.21639       .     S
O20   C48    1.21639       .     S
C22   N21    1.37198       .     S
N21   C22    1.37198       .     S
C25   N21    1.36571       .     S
N21   C25    1.36571       .     S
Ni62  N21    2.04709   1_454     S
N21   Ni62   2.04709   1_656     S
C23   C22    1.44849       .     S
C22   C23    1.44849       .     S
C105  C22    1.40375   1_554     S
C22   C105   1.40375   1_556     S
C24   C23    1.35005       .     S
C23   C24    1.35005       .     S
H63   C23    0.97411       .     S
C23   H63    0.97411       .     S
C25   C24    1.44791       .     S
C24   C25    1.44791       .     S
H64   C24    0.95938       .     S
C24   H64    0.95938       .     S
C26   C25    1.40971   1_455     S
C25   C26    1.40971   1_655     S
C27   C26    1.40426       .     S
C26   C27    1.40426       .     S
C32   C26    1.49638       .     S
C26   C32    1.49638       .     S
N28   C27    1.36844       .     S
C27   N28    1.36844       .     S
C31   C27    1.44788       .     S
C27   C31    1.44788       .     S
C29   N28    1.37178       .     S
N28   C29    1.37178       .     S
Ni62  N28    2.05480   1_554     S
N28   Ni62   2.05480   1_556     S
C30   C29    1.44246       .     S
C29   C30    1.44246       .     S
C41   C29    1.40424       .     S
C29   C41    1.40424       .     S
C31   C30    1.35417       .     S
C30   C31    1.35417       .     S
H65   C30    0.94587       .     S
C30   H65    0.94587       .     S
H66   C31    0.97381       .     S
C31   H66    0.97381       .     S
C33   C32    1.39568       .     S
C32   C33    1.39568       .     S
C37   C32    1.39540   1_655     S
C32   C37    1.39540   1_455     S
C34   C33    1.39216       .     S
C33   C34    1.39216       .     S
H67   C33    0.94596       .     S
C33   H67    0.94596       .     S
C35   C34    1.39438       .     S
C34   C35    1.39438       .     S
H68   C34    0.96716       .     S
C34   H68    0.96716       .     S
C36   C35    1.39307   1_655     S
C35   C36    1.39307   1_455     S
C38   C35    1.48827       .     S
C35   C38    1.48827       .     S
C37   C36    1.39057       .     S
C36   C37    1.39057       .     S
H69   C36    0.97569       .     S
C36   H69    0.97569       .     S
H70   C37    0.97680       .     S
C37   H70    0.97680       .     S
O39   C38    1.32883       .     S
C38   O39    1.32883       .     S
O40   C38    1.21624       .     S
C38   O40    1.21624       .     S
H83   O39    0.83818       .     S
O39   H83    0.83818       .     S
C42   C41    1.49764       .     S
C41   C42    1.49764       .     S
C86   C41    1.40375   1_554     S
C41   C86    1.40375   1_556     S
C43   C42    1.39421       .     S
C42   C43    1.39421       .     S
C47   C42    1.39736   1_554     S
C42   C47    1.39736   1_556     S
C44   C43    1.38747       .     S
C43   C44    1.38747       .     S
H71   C43    0.95727       .     S
C43   H71    0.95727       .     S
C45   C44    1.39200   1_554     S
C44   C45    1.39200   1_556     S
H72   C44    0.97805       .     S
C44   H72    0.97805       .     S
C46   C45    1.38987       .     S
C45   C46    1.38987       .     S
C48   C45    1.49141       .     S
C45   C48    1.49141       .     S
C47   C46    1.38750       .     S
C46   C47    1.38750       .     S
H73   C46    0.96815       .     S
C46   H73    0.96815       .     S
H74   C47    0.96305       .     S
C47   H74    0.96305       .     S
O49   C48    1.31168       .     S
C48   O49    1.31168       .     S
H84   O49    0.83753       .     S
O49   H84    0.83753       .     S
C51   N50    1.33642       .     S
N50   C51    1.33642       .     S
C55   N50    1.34183       .     S
N50   C55    1.34183       .     S
Ni62  N50    2.18264   1_454     S
N50   Ni62   2.18264   1_656     S
C52   C51    1.38114       .     S
C51   C52    1.38114       .     S
H75   C51    0.96300       .     S
C51   H75    0.96300       .     S
C53   C52    1.39307       .     S
C52   C53    1.39307       .     S
H76   C52    0.97639       .     S
C52   H76    0.97639       .     S
C54   C53    1.39264       .     S
C53   C54    1.39264       .     S
C56   C53    1.48031       .     S
C53   C56    1.48031       .     S
C55   C54    1.38776       .     S
C54   C55    1.38776       .     S
H77   C54    0.95767       .     S
C54   H77    0.95767       .     S
H78   C55    0.96067       .     S
C55   H78    0.96067       .     S
C57   C56    1.40095       .     S
C56   C57    1.40095       .     S
C61   C56    1.39555       .     S
C56   C61    1.39555       .     S
C58   C57    1.38232       .     S
C57   C58    1.38232       .     S
H79   C57    0.93734       .     S
C57   H79    0.93734       .     S
N59   C58    1.33193       .     S
C58   N59    1.33193       .     S
H80   C58    0.95194       .     S
C58   H80    0.95194       .     S
C60   N59    1.34212       .     S
N59   C60    1.34212       .     S
C61   C60    1.38212       .     S
C60   C61    1.38212       .     S
H81   C60    0.94306       .     S
C60   H81    0.94306       .     S
H82   C61    0.94440       .     S
C61   H82    0.94440       .     S
N85   Ni62   2.04709       .     S
Ni62  N85    2.04709       .     S
N92   Ni62   2.05480   1_655     S
Ni62  N92    2.05480   1_455     S
N129  Ni62   2.18264       .     S
Ni62  N129   2.18264       .     S
C86   N85    1.37198       .     S
N85   C86    1.37198       .     S
C89   N85    1.36571       .     S
N85   C89    1.36571       .     S
C87   C86    1.44849       .     S
C86   C87    1.44849       .     S
C88   C87    1.35005       .     S
C87   C88    1.35005       .     S
H115  C87    0.97411       .     S
C87   H115   0.97411       .     S
C89   C88    1.44791       .     S
C88   C89    1.44791       .     S
H116  C88    0.95938       .     S
C88   H116   0.95938       .     S
C90   C89    1.40971   1_655     S
C89   C90    1.40971   1_455     S
C91   C90    1.40426       .     S
C90   C91    1.40426       .     S
C96   C90    1.49638       .     S
C90   C96    1.49638       .     S
N92   C91    1.36844       .     S
C91   N92    1.36844       .     S
C95   C91    1.44788       .     S
C91   C95    1.44788       .     S
C93   N92    1.37178       .     S
N92   C93    1.37178       .     S
C94   C93    1.44246       .     S
C93   C94    1.44246       .     S
C105  C93    1.40424       .     S
C93   C105   1.40424       .     S
C95   C94    1.35417       .     S
C94   C95    1.35417       .     S
H117  C94    0.94587       .     S
C94   H117   0.94587       .     S
H118  C95    0.97381       .     S
C95   H118   0.97381       .     S
C97   C96    1.39568       .     S
C96   C97    1.39568       .     S
C101  C96    1.39540   1_455     S
C96   C101   1.39540   1_655     S
C98   C97    1.39216       .     S
C97   C98    1.39216       .     S
H119  C97    0.94596       .     S
C97   H119   0.94596       .     S
C99   C98    1.39438       .     S
C98   C99    1.39438       .     S
H120  C98    0.96716       .     S
C98   H120   0.96716       .     S
C100  C99    1.39307   1_455     S
C99   C100   1.39307   1_655     S
C102  C99    1.48827       .     S
C99   C102   1.48827       .     S
C101  C100   1.39057       .     S
C100  C101   1.39057       .     S
H121  C100   0.97569       .     S
C100  H121   0.97569       .     S
H122  C101   0.97681       .     S
C101  H122   0.97681       .     S
O103  C102   1.32883       .     S
C102  O103   1.32883       .     S
O104  C102   1.21624       .     S
C102  O104   1.21624       .     S
H127  O103   0.83818       .     S
O103  H127   0.83818       .     S
C106  C105   1.49764       .     S
C105  C106   1.49764       .     S
C107  C106   1.39421       .     S
C106  C107   1.39421       .     S
C111  C106   1.39736   1_556     S
C106  C111   1.39736   1_554     S
C108  C107   1.38747       .     S
C107  C108   1.38747       .     S
H123  C107   0.95727       .     S
C107  H123   0.95727       .     S
C109  C108   1.39200   1_556     S
C108  C109   1.39200   1_554     S
H124  C108   0.97805       .     S
C108  H124   0.97805       .     S
C110  C109   1.38987       .     S
C109  C110   1.38987       .     S
C112  C109   1.49141       .     S
C109  C112   1.49141       .     S
C111  C110   1.38750       .     S
C110  C111   1.38750       .     S
H125  C110   0.96815       .     S
C110  H125   0.96815       .     S
H126  C111   0.96305       .     S
C111  H126   0.96305       .     S
O113  C112   1.31168       .     S
C112  O113   1.31168       .     S
O114  C112   1.21639       .     S
C112  O114   1.21639       .     S
H128  O113   0.83753       .     S
O113  H128   0.83753       .     S
C130  N129   1.33642       .     S
N129  C130   1.33642       .     S
C134  N129   1.34183       .     S
N129  C134   1.34183       .     S
C131  C130   1.38113       .     S
C130  C131   1.38113       .     S
H141  C130   0.96300       .     S
C130  H141   0.96300       .     S
C132  C131   1.39307       .     S
C131  C132   1.39307       .     S
H142  C131   0.97639       .     S
C131  H142   0.97639       .     S
C133  C132   1.39264       .     S
C132  C133   1.39264       .     S
C135  C132   1.48031       .     S
C132  C135   1.48031       .     S
C134  C133   1.38776       .     S
C133  C134   1.38776       .     S
H143  C133   0.95767       .     S
C133  H143   0.95767       .     S
H144  C134   0.96067       .     S
C134  H144   0.96067       .     S
C136  C135   1.40095       .     S
C135  C136   1.40095       .     S
C140  C135   1.39555       .     S
C135  C140   1.39555       .     S
C137  C136   1.38232       .     S
C136  C137   1.38232       .     S
H145  C136   0.93734       .     S
C136  H145   0.93734       .     S
N138  C137   1.33193       .     S
C137  N138   1.33193       .     S
H146  C137   0.95194       .     S
C137  H146   0.95194       .     S
C139  N138   1.34212       .     S
N138  C139   1.34212       .     S
C140  C139   1.38212       .     S
C139  C140   1.38212       .     S
H147  C139   0.94306       .     S
C139  H147   0.94306       .     S
H148  C140   0.94440       .     S
C140  H148   0.94440       .     S
