data_I
_chemical_name_common  '/data/user2/wty/HOF/MOFDiff/mofdiff/data/test/294-3_5'
_cell_length_a 10.08540
_cell_length_b 20.08610
_cell_length_c 20.49270
_cell_angle_alpha 109.17800
_cell_angle_beta  103.48500
_cell_angle_gamma 103.58500
_space_group_name_H-M_alt      'P 1'


loop_
_space_group_symop_operation_xyz
  'x, y, z' 

loop_
_atom_site_label
_atom_site_fract_x
_atom_site_fract_y
_atom_site_fract_z
_atom_site_type_symbol
H0       0.412   0.2625   0.3886     H
N1       0.272   0.1917  0.22175     N
N2      0.3437  0.23486   0.3471     N
C3      0.3688  0.23399  0.28641     C
N4      0.7591   0.4667  0.49117     N
N5      0.8965   0.5203  0.43638     N
C6      0.7928  0.46393   0.4323     C
C7      0.5107  0.28248  0.29258     C
C8      0.5818   0.3496  0.35395     C
C9       0.716   0.3964  0.36287     C
C10     0.7779  0.37739  0.30813     C
C11      0.705  0.31072  0.24592     C
C12     0.5729    0.263  0.23834     C
H13     0.5391   0.3631   0.3899     H
H14       0.87   0.4095   0.3139     H
H15     0.7461   0.2979   0.2093     H
H16     0.5254   0.2178   0.1968     H
H17      0.289   0.1975   0.1841     H
H18      0.186    0.163   0.2178     H
H19      0.938   0.5589   0.4783     H
H20      0.799   0.5087   0.5302     H
H21     0.2538   0.2201   0.3455     H
H22       0.92   0.5192   0.3983     H
H23      0.687   0.4315   0.4893     H
N24     0.9935  0.44326  0.67104     N
C25     0.8586  0.39645  0.64353     C
C26     0.8011  0.35171  0.67553     C
C27     0.8886   0.3531   0.7376     C
C28     0.0293   0.3994   0.7663     C
C29     0.0768   0.4435   0.7316     C
H30        0.8   0.3936    0.599     H
H31     0.7028    0.321   0.6544     H
H32     0.8526   0.3224   0.7598     H
H33     0.0944   0.4014    0.808     H
H34     0.1748   0.4767   0.7518     H
N35     0.1732   0.4195   0.9889     N
C36     0.2128   0.4791   0.0478     C
C37      0.134   0.4922   0.0935     C
C38      0.004   0.4404   0.0753     C
C39     0.9514   0.3779   0.0076     C
C40     0.0438   0.3724   0.9696     C
H41     0.3041   0.5156    0.059     H
H42     0.1688   0.5366   0.1359     H
H43     0.9498   0.4462   0.1073     H
H44     0.8589    0.342    0.991     H
H45      0.015   0.3321   0.9238     H
H46      0.437   0.3116   0.1037     H
N47     0.5942  0.44683  0.08142     N
N48      0.495  0.33759  0.08925     N
C49      0.527  0.41022  0.11374     C
N50     0.1946  0.34704  0.26572     N
N51     0.3357  0.44025  0.37823     N
C52     0.2988  0.41106  0.30598     C
C53     0.4892  0.45159  0.17777     C
C54     0.4136  0.41324  0.21066     C
C55     0.3787  0.45229  0.27064     C
C56     0.4193  0.52992  0.29768     C
C57     0.4951  0.56808  0.26533     C
C58     0.5305  0.52984  0.20604     C
H59     0.3866   0.3611   0.1928     H
H60     0.3946   0.5564   0.3376     H
H61     0.5216   0.6204   0.2834     H
H62     0.5845   0.5569   0.1856     H
H63      0.521   0.3147   0.0539     H
H64      0.602   0.4214   0.0399     H
H65      0.412   0.4796   0.4044     H
H66      0.609   0.4939   0.0938     H
H67      0.156   0.3218   0.2876     H
H68       0.29   0.4162   0.3985     H
H69      0.171   0.3287    0.219     H
O70    0.53553  0.35378  0.49928     O
O71    0.42102  0.43321  0.53756     O
C72     0.4368  0.37058  0.52197     C
C73     0.3305  0.31009  0.53124     C
C74     0.3405  0.23891  0.51469     C
C75     0.2402   0.1834  0.52173     C
C76      0.128  0.19787   0.5461     C
C77     0.1192   0.2697  0.56359     C
C78     0.2194  0.32492  0.55634     C
O79     0.4203  0.74263  0.02664     O
O80     0.4372  0.64874  0.05962     O
C81     0.4431  0.71559  0.07412     C
C82     0.4804  0.76668   0.1539     C
C83     0.4979  0.73851  0.20761     C
C84     0.5374  0.78549  0.28115     C
C85      0.561  0.86228  0.30277     C
C86     0.5397  0.88966  0.24829     C
C87     0.5003  0.84259  0.17505     C
O88    0.94282  0.61959  0.57772     O
O89    0.90901  0.71912  0.65085     O
C90     0.9739  0.68938  0.61084     C
C91     0.0989  0.74098   0.6027     C
C92     0.1412  0.81807  0.64138     C
C93      0.257  0.86615  0.63586     C
C94     0.3322  0.83935  0.59011     C
C95     0.2884  0.76168  0.55065     C
C96     0.1743  0.71392  0.55744     C
O97    0.27445  0.23101   0.1027     O
O98     0.0823  0.26465  0.11316     O
C99     0.1515  0.23513  0.07585     C
C100    0.0853  0.20235  0.99327     C
C101    0.1688  0.18558  0.94932     C
C102    0.1077  0.15467   0.8734     C
C103    0.9608  0.13932  0.83933     C
C104    0.8782  0.15765  0.88391     C
C105    0.9398  0.18828  0.95957     C
N106   0.91592  0.10403  0.64099     N
C107    0.9538  0.13535  0.71575     C
C108    0.0703  0.20718  0.74664     C
C109     0.103  0.21766  0.68993     C
C110    0.0075  0.15246  0.62392     C
C111    0.0184  0.13876  0.55357     C
N112   0.80931  0.02166  0.48297     N
C113    0.9339  0.07347     0.49     C
C114    0.9558  0.04903  0.42064     C
C115    0.8455  0.98433  0.37425     C
C116     0.748   0.9681  0.41226     C
C117    0.6115  0.91207  0.38269     C
N118   0.56457  0.92527  0.49808     N
C119    0.5217  0.89749  0.42319     C
C120    0.3747   0.8456  0.39077     C
C121    0.3308  0.84018  0.44662     C
C122    0.4515  0.88831  0.51357     C
C123    0.4552  0.89201   0.5838     C
N124   0.68308  0.99988  0.65688     N
C125    0.5691  0.94125  0.64917     C
C126    0.5897  0.94016  0.72022     C
C127    0.7116  0.99811  0.76833     C
C128    0.7705  0.03748  0.72899     C
C129    0.8927  0.10266  0.75774     C
H130    0.4165   0.2278   0.4986     H
H131    0.2486   0.1362   0.5099     H
H132    0.0444   0.2802   0.5803     H
H133    0.2126   0.3736   0.5685     H
H134    0.4836   0.6872   0.1939     H
H135    0.5489   0.7658   0.3163     H
H136    0.5517   0.9412   0.2615     H
H137    0.4863   0.8614   0.1385     H
H138    0.0917   0.8377   0.6711     H
H139    0.2854   0.9173   0.6636     H
H140    0.3384    0.742   0.5205     H
H141    0.1495   0.6625   0.5315     H
H142    0.2655   0.1938   0.9693     H
H143    0.1664   0.1443   0.8449     H
H144     0.781   0.1503   0.8625     H
H145    0.8839   0.1999   0.9884     H
H146    0.1127   0.2394   0.7958     H
H147    0.1745   0.2578   0.6919     H
H148    0.0335   0.0738   0.4093     H
H149    0.8355   0.9553   0.3264     H
H150    0.3222   0.8208   0.3408     H
H151    0.2395   0.8122   0.4436     H
H152    0.5285   0.9069   0.7322     H
H153    0.7495   0.0097    0.818     H
H154     0.772   0.0243   0.5163     H
H155     0.698   0.0106   0.6219     H
H156     0.601    0.619    0.095     H
O157     0.666  0.60147  0.10507     O
H158     0.713    0.598   0.0773     H
N159    0.9876  0.10528  0.19872     N
C160    0.8962  0.13991  0.17651     C
C161    0.7513   0.1125   0.1621     C
C162    0.6931   0.0466    0.171     C
C163    0.7839  0.01287   0.1926     C
C164    0.9298   0.0433  0.20625     C
H165    0.9347   0.1851   0.1714     H
H166    0.6908   0.1377    0.146     H
H167    0.5908   0.0266   0.1608     H
H168    0.7481   0.9675   0.1983     H
H169    0.9927   0.0183   0.2214     H
loop_
_geom_bond_atom_site_label_1
_geom_bond_atom_site_label_2
_geom_bond_distance
_geom_bond_site_symmetry_2
_ccdc_geom_bond_type
H0    O70    2.22149       .     S
O70   H0     2.22149       .     S
H17   O97    1.98168       .     S
O97   H17    1.98168       .     S
H18   N159   1.93605   1_455     S
N159  H18    1.93605   1_655     S
H19   O88    1.98331       .     S
O88   H19    1.98331       .     S
H20   O88    2.10041       .     S
O88   H20    2.10041       .     S
H23   O70    2.01188       .     S
O70   H23    2.01188       .     S
H46   O97    2.00604       .     S
O97   H46    2.00604       .     S
H66   O157   2.01965       .     S
O157  H66    2.01965       .     S
H69   O98    1.96999       .     S
O98   H69    1.96999       .     S
H154  N106   2.38546       .     S
N106  H154   2.38546       .     S
H154  N118   2.38022   1_545     S
N118  H154   2.38022   1_565     S
H155  N106   2.38417       .     S
N106  H155   2.38417       .     S
H155  N118   2.37773   1_545     S
N118  H155   2.37773   1_565     S
H156  O80    1.94964       .     S
O80   H156   1.94964       .     S
H0    N2     0.86192       .     S
N2    H0     0.86192       .     S
N1    C3     1.30309       .     S
C3    N1     1.30309       .     S
N1    H17    0.86581       .     S
H17   N1     0.86581       .     S
N1    H18    0.89043       .     S
H18   N1     0.89043       .     S
N2    C3     1.32129       .     S
C3    N2     1.32129       .     S
N2    H21    0.87436       .     S
H21   N2     0.87436       .     S
C3    C7     1.48074       .     S
C7    C3     1.48074       .     S
N4    C6     1.31531       .     S
C6    N4     1.31531       .     S
N4    H20    0.87204       .     S
H20   N4     0.87204       .     S
N4    H23    0.87052       .     S
H23   N4     0.87052       .     S
N5    C6     1.31283       .     S
C6    N5     1.31283       .     S
N5    H19    0.86980       .     S
H19   N5     0.86980       .     S
N5    H22    0.86198       .     S
H22   N5     0.86198       .     S
C6    C9     1.47942       .     S
C9    C6     1.47942       .     S
C7    C8     1.38734       .     S
C8    C7     1.38734       .     S
C7    C12    1.39171       .     S
C12   C7     1.39171       .     S
C8    C9     1.38671       .     S
C9    C8     1.38671       .     S
C8    H13    0.93451       .     S
H13   C8     0.93451       .     S
C9    C10    1.39681       .     S
C10   C9     1.39681       .     S
C10   C11    1.39204       .     S
C11   C10    1.39204       .     S
C10   H14    0.95393       .     S
H14   C10    0.95393       .     S
C11   C12    1.38694       .     S
C12   C11    1.38694       .     S
C11   H15    0.93250       .     S
H15   C11    0.93250       .     S
C12   H16    0.93602       .     S
H16   C12    0.93602       .     S
N24   C25    1.32135       .     S
C25   N24    1.32135       .     S
N24   C29    1.32435   1_655     S
C29   N24    1.32435   1_455     S
C25   C26    1.37609       .     S
C26   C25    1.37609       .     S
C25   H30    0.93997       .     S
H30   C25    0.93997       .     S
C26   C27    1.35612       .     S
C27   C26    1.35612       .     S
C26   H31    0.94227       .     S
H31   C26    0.94227       .     S
C27   C28    1.36230   1_655     S
C28   C27    1.36230   1_455     S
C27   H32    0.93553       .     S
H32   C27    0.93553       .     S
C28   C29    1.37592       .     S
C29   C28    1.37592       .     S
C28   H33    0.93076       .     S
H33   C28    0.93076       .     S
C29   H34    0.95453       .     S
H34   C29    0.95453       .     S
N35   C36    1.28481   1_556     S
C36   N35    1.28481   1_554     S
N35   C40    1.29924       .     S
C40   N35    1.29924       .     S
C36   C37    1.36431       .     S
C37   C36    1.36431       .     S
C36   H41    0.95488       .     S
H41   C36    0.95488       .     S
C37   C38    1.34788       .     S
C38   C37    1.34788       .     S
C37   H42    0.93548       .     S
H42   C37    0.93548       .     S
C38   C39    1.40775   1_455     S
C39   C38    1.40775   1_655     S
C38   H43    0.94303   1_455     S
H43   C38    0.94303   1_655     S
C39   C40    1.34808   1_654     S
C40   C39    1.34808   1_456     S
C39   H44    0.93851   1_554     S
H44   C39    0.93851   1_556     S
C40   H45    0.94009       .     S
H45   C40    0.94009       .     S
H46   N48    0.86097       .     S
N48   H46    0.86097       .     S
N47   C49    1.31680       .     S
C49   N47    1.31680       .     S
N47   H64    0.86925       .     S
H64   N47    0.86925       .     S
N47   H66    0.85964       .     S
H66   N47    0.85964       .     S
N48   C49    1.30634       .     S
C49   N48    1.30634       .     S
N48   H63    0.85518       .     S
H63   N48    0.85518       .     S
C49   C53    1.49108       .     S
C53   C49    1.49108       .     S
N50   C52    1.30476       .     S
C52   N50    1.30476       .     S
N50   H67    0.86467       .     S
H67   N50    0.86467       .     S
N50   H69    0.85429       .     S
H69   N50    0.85429       .     S
N51   C52    1.32083       .     S
C52   N51    1.32083       .     S
N51   H65    0.86475       .     S
H65   N51    0.86475       .     S
N51   H68    0.85724       .     S
H68   N51    0.85724       .     S
C52   C55    1.48741       .     S
C55   C52    1.48741       .     S
C53   C54    1.39063       .     S
C54   C53    1.39063       .     S
C53   C58    1.40041       .     S
C58   C53    1.40041       .     S
C54   C55    1.39570       .     S
C55   C54    1.39570       .     S
C54   H59    0.93415       .     S
H59   C54    0.93415       .     S
C55   C56    1.39020       .     S
C56   C55    1.39020       .     S
C56   C57    1.38071       .     S
C57   C56    1.38071       .     S
C56   H60    0.94106       .     S
H60   C56    0.94106       .     S
C57   C58    1.38263       .     S
C58   C57    1.38263       .     S
C57   H61    0.93764       .     S
H61   C57    0.93764       .     S
C58   H62    0.94042       .     S
H62   C58    0.94042       .     S
O70   C72    1.26184       .     S
C72   O70    1.26184       .     S
O71   C72    1.25046       .     S
C72   O71    1.25046       .     S
C72   C73    1.51538       .     S
C73   C72    1.51538       .     S
C73   C74    1.39084       .     S
C74   C73    1.39084       .     S
C73   C78    1.39058       .     S
C78   C73    1.39058       .     S
C74   C75    1.38966       .     S
C75   C74    1.38966       .     S
C74   H130   0.94652       .     S
H130  C74    0.94652       .     S
C75   C76    1.39178       .     S
C76   C75    1.39178       .     S
C75   H131   0.92794       .     S
H131  C75    0.92794       .     S
C76   C77    1.39757       .     S
C77   C76    1.39757       .     S
C76   C111   1.49556       .     S
C111  C76    1.49556       .     S
C77   C78    1.38754       .     S
C78   C77    1.38754       .     S
C77   H132   0.93734       .     S
H132  C77    0.93734       .     S
C78   H133   0.94988       .     S
H133  C78    0.94988       .     S
O79   C81    1.26337       .     S
C81   O79    1.26337       .     S
O80   C81    1.25972       .     S
C81   O80    1.25972       .     S
C81   C82    1.51560       .     S
C82   C81    1.51560       .     S
C82   C83    1.38862       .     S
C83   C82    1.38862       .     S
C82   C87    1.39084       .     S
C87   C82    1.39084       .     S
C83   C84    1.38902       .     S
C84   C83    1.38902       .     S
C83   H134   0.93965       .     S
H134  C83    0.93965       .     S
C84   C85    1.40049       .     S
C85   C84    1.40049       .     S
C84   H135   0.92654       .     S
H135  C84    0.92654       .     S
C85   C86    1.39359       .     S
C86   C85    1.39359       .     S
C85   C117   1.49581       .     S
C117  C85    1.49581       .     S
C86   C87    1.38474       .     S
C87   C86    1.38474       .     S
C86   H136   0.94941       .     S
H136  C86    0.94941       .     S
C87   H137   0.94094       .     S
H137  C87    0.94094       .     S
O88   C90    1.26224       .     S
C90   O88    1.26224       .     S
O89   C90    1.25280       .     S
C90   O89    1.25280       .     S
C90   C91    1.51301   1_655     S
C91   C90    1.51301   1_455     S
C91   C92    1.39051       .     S
C92   C91    1.39051       .     S
C91   C96    1.38775       .     S
C96   C91    1.38775       .     S
C92   C93    1.38310       .     S
C93   C92    1.38310       .     S
C92   H138   0.92311       .     S
H138  C92    0.92311       .     S
C93   C94    1.39133       .     S
C94   C93    1.39133       .     S
C93   H139   0.92890       .     S
H139  C93    0.92890       .     S
C94   C95    1.40133       .     S
C95   C94    1.40133       .     S
C94   C123   1.49085       .     S
C123  C94    1.49085       .     S
C95   C96    1.38117       .     S
C96   C95    1.38117       .     S
C95   H140   0.93316       .     S
H140  C95    0.93316       .     S
C96   H141   0.93155       .     S
H141  C96    0.93155       .     S
O97   C99    1.26772       .     S
C99   O97    1.26772       .     S
O98   C99    1.25246       .     S
C99   O98    1.25246       .     S
C99   C100   1.50917   1_554     S
C100  C99    1.50917   1_556     S
C100  C101   1.38618       .     S
C101  C100   1.38618       .     S
C100  C105   1.38364   1_455     S
C105  C100   1.38364   1_655     S
C101  C102   1.38717       .     S
C102  C101   1.38717       .     S
C101  H142   0.91637       .     S
H142  C101   0.91637       .     S
C102  C103   1.39250   1_455     S
C103  C102   1.39250   1_655     S
C102  H143   0.93500       .     S
H143  C102   0.93500       .     S
C103  C104   1.39362       .     S
C104  C103   1.39362       .     S
C103  C129   1.49247       .     S
C129  C103   1.49247       .     S
C104  C105   1.38309       .     S
C105  C104   1.38309       .     S
C104  H144   0.92959       .     S
H144  C104   0.92959       .     S
C105  H145   0.92083       .     S
H145  C105   0.92083       .     S
N106  C107   1.36739       .     S
C107  N106   1.36739       .     S
N106  C110   1.36890   1_655     S
C110  N106   1.36890   1_455     S
C107  C108   1.45587   1_655     S
C108  C107   1.45587   1_455     S
C107  C129   1.40703       .     S
C129  C107   1.40703       .     S
C108  C109   1.34555       .     S
C109  C108   1.34555       .     S
C108  H146   0.92591       .     S
H146  C108   0.92591       .     S
C109  C110   1.45207       .     S
C110  C109   1.45207       .     S
C109  H147   0.92929       .     S
H147  C109   0.92929       .     S
C110  C111   1.41198       .     S
C111  C110   1.41198       .     S
C111  C113   1.40639   1_455     S
C113  C111   1.40639   1_655     S
N112  C113   1.37310       .     S
C113  N112   1.37310       .     S
N112  C116   1.37290   1_545     S
C116  N112   1.37290   1_565     S
N112  H154   0.84638       .     S
H154  N112   0.84638       .     S
C113  C114   1.43143       .     S
C114  C113   1.43143       .     S
C114  C115   1.35870   1_545     S
C115  C114   1.35870   1_565     S
C114  H148   0.94518   1_655     S
H148  C114   0.94518   1_455     S
C115  C116   1.43297       .     S
C116  C115   1.43297       .     S
C115  H149   0.92860       .     S
H149  C115   0.92860       .     S
C116  C117   1.40143       .     S
C117  C116   1.40143       .     S
C117  C119   1.40729       .     S
C119  C117   1.40729       .     S
N118  C119   1.36681       .     S
C119  N118   1.36681       .     S
N118  C122   1.37049       .     S
C122  N118   1.37049       .     S
C119  C120   1.44411       .     S
C120  C119   1.44411       .     S
C120  C121   1.34661       .     S
C121  C120   1.34661       .     S
C120  H150   0.93016       .     S
H150  C120   0.93016       .     S
C121  C122   1.44762       .     S
C122  C121   1.44762       .     S
C121  H151   0.93542       .     S
H151  C121   0.93542       .     S
C122  C123   1.40769       .     S
C123  C122   1.40769       .     S
C123  C125   1.40372       .     S
C125  C123   1.40372       .     S
N124  C125   1.37489       .     S
C125  N124   1.37489       .     S
N124  C128   1.37030   1_565     S
C128  N124   1.37030   1_545     S
N124  H155   0.84815   1_565     S
H155  N124   0.84815   1_545     S
C125  C126   1.43025       .     S
C126  C125   1.43025       .     S
C126  C127   1.35897       .     S
C127  C126   1.35897       .     S
C126  H152   0.93395       .     S
H152  C126   0.93395       .     S
C127  C128   1.43167   1_565     S
C128  C127   1.43167   1_545     S
C127  H153   0.92597   1_565     S
H153  C127   0.92597   1_545     S
C128  C129   1.40593       .     S
C129  C128   1.40593       .     S
H156  O157   0.83030       .     S
O157  H156   0.83030       .     S
O157  H158   0.81772       .     S
H158  O157   0.81772       .     S
N159  C160   1.36171       .     S
C160  N159   1.36171       .     S
N159  C164   1.31937       .     S
C164  N159   1.31937       .     S
C160  C161   1.35642       .     S
C161  C160   1.35642       .     S
C160  H165   0.94946       .     S
H165  C160   0.94946       .     S
C161  C162   1.40480       .     S
C162  C161   1.40480       .     S
C161  H166   0.94778       .     S
H166  C161   0.94778       .     S
C162  C163   1.33903       .     S
C163  C162   1.33903       .     S
C162  H167   0.95869       .     S
H167  C162   0.95869       .     S
C163  C164   1.37485       .     S
C164  C163   1.37485       .     S
C163  H168   0.95369   1_545     S
H168  C163   0.95369   1_565     S
C164  H169   0.95457       .     S
H169  C164   0.95457       .     S
O70   H0     2.22149       .     S
H0    O70    2.22149       .     S
O97   H17    1.98168       .     S
H17   O97    1.98168       .     S
N159  H18    1.93605   1_655     S
H18   N159   1.93605   1_455     S
O88   H19    1.98331       .     S
H19   O88    1.98331       .     S
O88   H20    2.10041       .     S
H20   O88    2.10041       .     S
O70   H23    2.01188       .     S
H23   O70    2.01188       .     S
O97   H46    2.00604       .     S
H46   O97    2.00604       .     S
O157  H66    2.01965       .     S
H66   O157   2.01965       .     S
O98   H69    1.96999       .     S
H69   O98    1.96999       .     S
N106  H154   2.38546       .     S
H154  N106   2.38546       .     S
N118  H154   2.38022   1_565     S
H154  N118   2.38022   1_545     S
N106  H155   2.38417       .     S
H155  N106   2.38417       .     S
N118  H155   2.37773   1_565     S
H155  N118   2.37773   1_545     S
O80   H156   1.94964       .     S
H156  O80    1.94964       .     S
N2    H0     0.86192       .     S
H0    N2     0.86192       .     S
C3    N1     1.30309       .     S
N1    C3     1.30309       .     S
H17   N1     0.86581       .     S
N1    H17    0.86581       .     S
H18   N1     0.89043       .     S
N1    H18    0.89043       .     S
C3    N2     1.32129       .     S
N2    C3     1.32129       .     S
H21   N2     0.87436       .     S
N2    H21    0.87436       .     S
C7    C3     1.48074       .     S
C3    C7     1.48074       .     S
C6    N4     1.31531       .     S
N4    C6     1.31531       .     S
H20   N4     0.87204       .     S
N4    H20    0.87204       .     S
H23   N4     0.87052       .     S
N4    H23    0.87052       .     S
C6    N5     1.31283       .     S
N5    C6     1.31283       .     S
H19   N5     0.86980       .     S
N5    H19    0.86980       .     S
H22   N5     0.86198       .     S
N5    H22    0.86198       .     S
C9    C6     1.47942       .     S
C6    C9     1.47942       .     S
C8    C7     1.38734       .     S
C7    C8     1.38734       .     S
C12   C7     1.39171       .     S
C7    C12    1.39171       .     S
C9    C8     1.38671       .     S
C8    C9     1.38671       .     S
H13   C8     0.93451       .     S
C8    H13    0.93451       .     S
C10   C9     1.39681       .     S
C9    C10    1.39681       .     S
C11   C10    1.39204       .     S
C10   C11    1.39204       .     S
H14   C10    0.95393       .     S
C10   H14    0.95393       .     S
C12   C11    1.38694       .     S
C11   C12    1.38694       .     S
H15   C11    0.93250       .     S
C11   H15    0.93250       .     S
H16   C12    0.93602       .     S
C12   H16    0.93602       .     S
C25   N24    1.32135       .     S
N24   C25    1.32135       .     S
C29   N24    1.32435   1_455     S
N24   C29    1.32435   1_655     S
C26   C25    1.37609       .     S
C25   C26    1.37609       .     S
H30   C25    0.93997       .     S
C25   H30    0.93997       .     S
C27   C26    1.35612       .     S
C26   C27    1.35612       .     S
H31   C26    0.94227       .     S
C26   H31    0.94227       .     S
C28   C27    1.36230   1_455     S
C27   C28    1.36230   1_655     S
H32   C27    0.93553       .     S
C27   H32    0.93553       .     S
C29   C28    1.37592       .     S
C28   C29    1.37592       .     S
H33   C28    0.93076       .     S
C28   H33    0.93076       .     S
H34   C29    0.95453       .     S
C29   H34    0.95453       .     S
C36   N35    1.28481   1_554     S
N35   C36    1.28481   1_556     S
C40   N35    1.29924       .     S
N35   C40    1.29924       .     S
C37   C36    1.36431       .     S
C36   C37    1.36431       .     S
H41   C36    0.95488       .     S
C36   H41    0.95488       .     S
C38   C37    1.34788       .     S
C37   C38    1.34788       .     S
H42   C37    0.93548       .     S
C37   H42    0.93548       .     S
C39   C38    1.40775   1_655     S
C38   C39    1.40775   1_455     S
H43   C38    0.94303   1_655     S
C38   H43    0.94303   1_455     S
C40   C39    1.34808   1_456     S
C39   C40    1.34808   1_654     S
H44   C39    0.93851   1_556     S
C39   H44    0.93851   1_554     S
H45   C40    0.94009       .     S
C40   H45    0.94009       .     S
N48   H46    0.86097       .     S
H46   N48    0.86097       .     S
C49   N47    1.31680       .     S
N47   C49    1.31680       .     S
H64   N47    0.86925       .     S
N47   H64    0.86925       .     S
H66   N47    0.85964       .     S
N47   H66    0.85964       .     S
C49   N48    1.30634       .     S
N48   C49    1.30634       .     S
H63   N48    0.85518       .     S
N48   H63    0.85518       .     S
C53   C49    1.49108       .     S
C49   C53    1.49108       .     S
C52   N50    1.30476       .     S
N50   C52    1.30476       .     S
H67   N50    0.86467       .     S
N50   H67    0.86467       .     S
H69   N50    0.85429       .     S
N50   H69    0.85429       .     S
C52   N51    1.32083       .     S
N51   C52    1.32083       .     S
H65   N51    0.86475       .     S
N51   H65    0.86475       .     S
H68   N51    0.85724       .     S
N51   H68    0.85724       .     S
C55   C52    1.48741       .     S
C52   C55    1.48741       .     S
C54   C53    1.39063       .     S
C53   C54    1.39063       .     S
C58   C53    1.40041       .     S
C53   C58    1.40041       .     S
C55   C54    1.39570       .     S
C54   C55    1.39570       .     S
H59   C54    0.93415       .     S
C54   H59    0.93415       .     S
C56   C55    1.39020       .     S
C55   C56    1.39020       .     S
C57   C56    1.38071       .     S
C56   C57    1.38071       .     S
H60   C56    0.94106       .     S
C56   H60    0.94106       .     S
C58   C57    1.38263       .     S
C57   C58    1.38263       .     S
H61   C57    0.93764       .     S
C57   H61    0.93764       .     S
H62   C58    0.94042       .     S
C58   H62    0.94042       .     S
C72   O70    1.26184       .     S
O70   C72    1.26184       .     S
C72   O71    1.25046       .     S
O71   C72    1.25046       .     S
C73   C72    1.51538       .     S
C72   C73    1.51538       .     S
C74   C73    1.39084       .     S
C73   C74    1.39084       .     S
C78   C73    1.39058       .     S
C73   C78    1.39058       .     S
C75   C74    1.38966       .     S
C74   C75    1.38966       .     S
H130  C74    0.94652       .     S
C74   H130   0.94652       .     S
C76   C75    1.39178       .     S
C75   C76    1.39178       .     S
H131  C75    0.92794       .     S
C75   H131   0.92794       .     S
C77   C76    1.39757       .     S
C76   C77    1.39757       .     S
C111  C76    1.49556       .     S
C76   C111   1.49556       .     S
C78   C77    1.38754       .     S
C77   C78    1.38754       .     S
H132  C77    0.93734       .     S
C77   H132   0.93734       .     S
H133  C78    0.94988       .     S
C78   H133   0.94988       .     S
C81   O79    1.26337       .     S
O79   C81    1.26337       .     S
C81   O80    1.25972       .     S
O80   C81    1.25972       .     S
C82   C81    1.51560       .     S
C81   C82    1.51560       .     S
C83   C82    1.38862       .     S
C82   C83    1.38862       .     S
C87   C82    1.39084       .     S
C82   C87    1.39084       .     S
C84   C83    1.38902       .     S
C83   C84    1.38902       .     S
H134  C83    0.93965       .     S
C83   H134   0.93965       .     S
C85   C84    1.40049       .     S
C84   C85    1.40049       .     S
H135  C84    0.92654       .     S
C84   H135   0.92654       .     S
C86   C85    1.39359       .     S
C85   C86    1.39359       .     S
C117  C85    1.49581       .     S
C85   C117   1.49581       .     S
C87   C86    1.38474       .     S
C86   C87    1.38474       .     S
H136  C86    0.94941       .     S
C86   H136   0.94941       .     S
H137  C87    0.94094       .     S
C87   H137   0.94094       .     S
C90   O88    1.26224       .     S
O88   C90    1.26224       .     S
C90   O89    1.25280       .     S
O89   C90    1.25280       .     S
C91   C90    1.51301   1_455     S
C90   C91    1.51301   1_655     S
C92   C91    1.39051       .     S
C91   C92    1.39051       .     S
C96   C91    1.38775       .     S
C91   C96    1.38775       .     S
C93   C92    1.38310       .     S
C92   C93    1.38310       .     S
H138  C92    0.92311       .     S
C92   H138   0.92311       .     S
C94   C93    1.39133       .     S
C93   C94    1.39133       .     S
H139  C93    0.92890       .     S
C93   H139   0.92890       .     S
C95   C94    1.40133       .     S
C94   C95    1.40133       .     S
C123  C94    1.49085       .     S
C94   C123   1.49085       .     S
C96   C95    1.38117       .     S
C95   C96    1.38117       .     S
H140  C95    0.93316       .     S
C95   H140   0.93316       .     S
H141  C96    0.93155       .     S
C96   H141   0.93155       .     S
C99   O97    1.26772       .     S
O97   C99    1.26772       .     S
C99   O98    1.25246       .     S
O98   C99    1.25246       .     S
C100  C99    1.50917   1_556     S
C99   C100   1.50917   1_554     S
C101  C100   1.38618       .     S
C100  C101   1.38618       .     S
C105  C100   1.38364   1_655     S
C100  C105   1.38364   1_455     S
C102  C101   1.38717       .     S
C101  C102   1.38717       .     S
H142  C101   0.91637       .     S
C101  H142   0.91637       .     S
C103  C102   1.39250   1_655     S
C102  C103   1.39250   1_455     S
H143  C102   0.93500       .     S
C102  H143   0.93500       .     S
C104  C103   1.39362       .     S
C103  C104   1.39362       .     S
C129  C103   1.49247       .     S
C103  C129   1.49247       .     S
C105  C104   1.38309       .     S
C104  C105   1.38309       .     S
H144  C104   0.92959       .     S
C104  H144   0.92959       .     S
H145  C105   0.92083       .     S
C105  H145   0.92083       .     S
C107  N106   1.36739       .     S
N106  C107   1.36739       .     S
C110  N106   1.36890   1_455     S
N106  C110   1.36890   1_655     S
C108  C107   1.45587   1_455     S
C107  C108   1.45587   1_655     S
C129  C107   1.40703       .     S
C107  C129   1.40703       .     S
C109  C108   1.34555       .     S
C108  C109   1.34555       .     S
H146  C108   0.92591       .     S
C108  H146   0.92591       .     S
C110  C109   1.45207       .     S
C109  C110   1.45207       .     S
H147  C109   0.92929       .     S
C109  H147   0.92929       .     S
C111  C110   1.41198       .     S
C110  C111   1.41198       .     S
C113  C111   1.40639   1_655     S
C111  C113   1.40639   1_455     S
C113  N112   1.37310       .     S
N112  C113   1.37310       .     S
C116  N112   1.37290   1_565     S
N112  C116   1.37290   1_545     S
H154  N112   0.84638       .     S
N112  H154   0.84638       .     S
C114  C113   1.43143       .     S
C113  C114   1.43143       .     S
C115  C114   1.35870   1_565     S
C114  C115   1.35870   1_545     S
H148  C114   0.94518   1_455     S
C114  H148   0.94518   1_655     S
C116  C115   1.43297       .     S
C115  C116   1.43297       .     S
H149  C115   0.92860       .     S
C115  H149   0.92860       .     S
C117  C116   1.40143       .     S
C116  C117   1.40143       .     S
C119  C117   1.40729       .     S
C117  C119   1.40729       .     S
C119  N118   1.36681       .     S
N118  C119   1.36681       .     S
C122  N118   1.37049       .     S
N118  C122   1.37049       .     S
C120  C119   1.44411       .     S
C119  C120   1.44411       .     S
C121  C120   1.34661       .     S
C120  C121   1.34661       .     S
H150  C120   0.93016       .     S
C120  H150   0.93016       .     S
C122  C121   1.44762       .     S
C121  C122   1.44762       .     S
H151  C121   0.93542       .     S
C121  H151   0.93542       .     S
C123  C122   1.40769       .     S
C122  C123   1.40769       .     S
C125  C123   1.40372       .     S
C123  C125   1.40372       .     S
C125  N124   1.37489       .     S
N124  C125   1.37489       .     S
C128  N124   1.37030   1_545     S
N124  C128   1.37030   1_565     S
H155  N124   0.84815   1_545     S
N124  H155   0.84815   1_565     S
C126  C125   1.43025       .     S
C125  C126   1.43025       .     S
C127  C126   1.35897       .     S
C126  C127   1.35897       .     S
H152  C126   0.93395       .     S
C126  H152   0.93395       .     S
C128  C127   1.43167   1_545     S
C127  C128   1.43167   1_565     S
H153  C127   0.92597   1_545     S
C127  H153   0.92597   1_565     S
C129  C128   1.40593       .     S
C128  C129   1.40593       .     S
O157  H156   0.83030       .     S
H156  O157   0.83030       .     S
H158  O157   0.81772       .     S
O157  H158   0.81772       .     S
C160  N159   1.36171       .     S
N159  C160   1.36171       .     S
C164  N159   1.31937       .     S
N159  C164   1.31937       .     S
C161  C160   1.35642       .     S
C160  C161   1.35642       .     S
H165  C160   0.94946       .     S
C160  H165   0.94946       .     S
C162  C161   1.40480       .     S
C161  C162   1.40480       .     S
H166  C161   0.94778       .     S
C161  H166   0.94778       .     S
C163  C162   1.33903       .     S
C162  C163   1.33903       .     S
H167  C162   0.95869       .     S
C162  H167   0.95869       .     S
C164  C163   1.37485       .     S
C163  C164   1.37485       .     S
H168  C163   0.95369   1_565     S
C163  H168   0.95369   1_545     S
H169  C164   0.95457       .     S
C164  H169   0.95457       .     S
