data_I
_chemical_name_common  '/data/user2/wty/HOF/MOFDiff/mofdiff/data/test/294-5_pyridine'
_cell_length_a 14.75490
_cell_length_b  7.31130
_cell_length_c 30.75070
_cell_angle_alpha 90.00000
_cell_angle_beta  92.16300
_cell_angle_gamma 90.00000
_space_group_name_H-M_alt      'P 1'


loop_
_space_group_symop_operation_xyz
  'x, y, z' 

loop_
_atom_site_label
_atom_site_fract_x
_atom_site_fract_y
_atom_site_fract_z
_atom_site_type_symbol
N0      0.7018    0.645  0.77889     N
C1      0.7667   0.7583  0.76622     C
C2      0.8417   0.8004  0.79146     C
C3      0.8511   0.7229  0.83234     C
C4      0.7844   0.6089  0.84627     C
C5      0.7116   0.5723   0.8185     C
H6      0.7609   0.8112   0.7383     H
H7      0.8856   0.8802   0.7807     H
H8      0.9025    0.748   0.8503     H
H9      0.7882   0.5572   0.8743     H
H10     0.6661   0.4924   0.8276     H
N11     0.8132   0.4386  0.40873     N
C12     0.7659   0.3904  0.37278     C
C13     0.6775   0.4433  0.36379     C
C14     0.6359   0.5471  0.39465     C
C15     0.6835   0.5972  0.43154     C
C16     0.7711   0.5404  0.43719     C
H17     0.7957   0.3212   0.3522     H
H18     0.6474   0.4094   0.3378     H
H19     0.5753   0.5834   0.3902     H
H20      0.657   0.6688   0.4532     H
H21     0.8035   0.5743   0.4629     H
C22     0.8336   0.2835   0.7051     C
C23     0.8473   0.1277   0.6754     C
O24       0.91   0.0079  0.69768     O
C25     0.9333   0.8661  0.67183     C
C26     0.0007   0.7408   0.6924     C
H27     0.7881   0.3663   0.6923     H
H28     0.8908   0.3489   0.7102     H
H29     0.8143   0.2384   0.7333     H
H30     0.8755   0.1722   0.6487     H
H31     0.7892   0.0652   0.6679     H
H32     0.9579   0.9164   0.6448     H
H33     0.8774    0.798   0.6649     H
H34     0.0159    0.644   0.6723     H
H35      0.056   0.8072   0.7011     H
H36     0.9767   0.6867   0.7189     H
N37    0.39795   0.4675  0.45411     N
C38    0.39403   0.3385  0.42179     C
C39      0.311   0.3582  0.39501     C
C40     0.2658    0.501  0.41113     C
C41     0.3198   0.5685  0.44831     C
C42     0.2959   0.7184  0.47392     C
C43      0.348   0.7877  0.50881     C
C44     0.3211   0.9244  0.53922     C
C45     0.3889    0.947  0.56948     C
C46     0.4613   0.8237  0.55986     C
N47    0.43371   0.7319  0.52258     N
C48     0.5406   0.7962  0.58517     C
C49     0.2088    0.815  0.46367     C
C50     0.1254   0.7254  0.46379     C
C51     0.0456   0.8198  0.45475     C
C52     0.0471   0.0057  0.44623     C
C53     0.1293   0.0964   0.4458     C
C54     0.2095   0.0019   0.4544     C
C55     0.9597   0.1037  0.43617     C
O56    0.88713   0.0244  0.43501     O
O57    0.96992   0.2807   0.4292     O
C58    0.55463   0.9229  0.62291     C
C59     0.5677   0.1097  0.61569     C
C60     0.5814   0.2296  0.65029     C
C61     0.5826   0.1647  0.69253     C
C62      0.569   0.9787  0.70014     C
C63     0.5551   0.8596  0.66574     C
C64     0.6031   0.2881  0.73032     C
O65    0.60538    0.463  0.71922     O
O66    0.61678   0.2331  0.76707     O
H67     0.2931   0.2875   0.3711     H
H68     0.2105   0.5478   0.4003     H
H69     0.2657   0.9856    0.538     H
H70     0.3886   0.0278   0.5934     H
H71      0.124   0.5994   0.4697     H
H72     0.9916   0.7579   0.4551     H
H73     0.1306   0.2221   0.4392     H
H74     0.2642   0.0659    0.454     H
H75     0.5669   0.1521   0.5866     H
H76     0.5906   0.3534    0.645     H
H77      0.569   0.9362   0.7289     H
H78     0.5453   0.7347   0.6712     H
H79     0.4643    0.649     0.51     H
H80      0.629    0.521   0.7399     H
H81     0.9179    0.327   0.4226     H
N82    0.60205   0.5325  0.54589     N
C83    0.60597   0.6615  0.57821     C
C84      0.689   0.6418  0.60499     C
C85     0.7342    0.499  0.58887     C
C86     0.6802   0.4315  0.55169     C
C87     0.7041   0.2816  0.52608     C
C88      0.652   0.2123  0.49119     C
C89     0.6789   0.0756  0.46078     C
C90     0.6111    0.053  0.43052     C
C91     0.5387   0.1763  0.44014     C
N92    0.56629   0.2681  0.47742     N
C93     0.4594   0.2038  0.41483     C
C94     0.7912    0.185  0.53633     C
C95     0.8746   0.2746  0.53621     C
C96     0.9544   0.1802  0.54525     C
C97     0.9529   0.9943  0.55377     C
C98     0.8707   0.9036   0.5542     C
C99     0.7905   0.9981   0.5456     C
C100    0.0403   0.8963  0.56383     C
O101   0.11287   0.9756  0.56499     O
O102   0.03008   0.7193   0.5708     O
C103   0.44537   0.0771  0.37709     C
C104    0.4323   0.8903  0.38431     C
C105    0.4186   0.7704  0.34971     C
C106    0.4174   0.8353  0.30747     C
C107     0.431   0.0213  0.29986     C
C108    0.4449   0.1404  0.33426     C
C109    0.3969   0.7119  0.26968     C
O110   0.39462    0.537  0.28078     O
O111   0.38322   0.7669  0.23293     O
H112    0.7069   0.7125   0.6289     H
H113    0.7895   0.4522   0.5997     H
H114    0.7343   0.0144    0.462     H
H115    0.6114   0.9722   0.4066     H
H116     0.876   0.4006   0.5303     H
H117    0.0084   0.2421   0.5449     H
H118    0.8694   0.7779   0.5608     H
H119    0.7358   0.9341    0.546     H
H120    0.4331   0.8479   0.4134     H
H121    0.4094   0.6466    0.355     H
H122     0.431   0.0638   0.2711     H
H123    0.4547   0.2653   0.3288     H
H124    0.5357    0.351     0.49     H
H125     0.371    0.479   0.2601     H
H126    0.0821    0.673   0.5774     H
loop_
_geom_bond_atom_site_label_1
_geom_bond_atom_site_label_2
_geom_bond_distance
_geom_bond_site_symmetry_2
_ccdc_geom_bond_type
H79   N37    2.35502       .     S
N37   H79    2.35502       .     S
H79   N82    2.43006       .     S
N82   H79    2.43006       .     S
H80   N0     1.82100       .     S
N0    H80    1.82100       .     S
H81   N11    1.78451       .     S
N11   H81    1.78451       .     S
H124  N37    2.43007       .     S
N37   H124   2.43007       .     S
H124  N82    2.35502       .     S
N82   H124   2.35502       .     S
N0    C1     1.33534       .     S
C1    N0     1.33534       .     S
N0    C5     1.33182       .     S
C5    N0     1.33182       .     S
C1    C2     1.36269       .     S
C2    C1     1.36269       .     S
C1    H6     0.94260       .     S
H6    C1     0.94260       .     S
C2    C3     1.38109       .     S
C3    C2     1.38109       .     S
C2    H7     0.94108       .     S
H7    C2     0.94108       .     S
C3    C4     1.37061       .     S
C4    C3     1.37061       .     S
C3    H8     0.93928       .     S
H8    C3     0.93928       .     S
C4    C5     1.37310       .     S
C5    C4     1.37310       .     S
C4    H9     0.94091       .     S
H9    C4     0.94091       .     S
C5    H10    0.94045       .     S
H10   C5     0.94045       .     S
N11   C12    1.33234       .     S
C12   N11    1.33234       .     S
N11   C16    1.32166       .     S
C16   N11    1.32166       .     S
C12   C13    1.37843       .     S
C13   C12    1.37843       .     S
C12   H17    0.93317       .     S
H17   C12    0.93317       .     S
C13   C14    1.37739       .     S
C14   C13    1.37739       .     S
C13   H18    0.93307       .     S
H18   C13    0.93307       .     S
C14   C15    1.36167       .     S
C15   C14    1.36167       .     S
C14   H19    0.93778       .     S
H19   C14    0.93778       .     S
C15   C16    1.36247       .     S
C16   C15    1.36247       .     S
C15   H20    0.94351       .     S
H20   C15    0.94351       .     S
C16   H21    0.94154       .     S
H21   C16    0.94154       .     S
C22   C23    1.47867       .     S
C23   C22    1.47867       .     S
C22   H27    0.97579       .     S
H27   C22    0.97579       .     S
C22   H28    0.97752       .     S
H28   C22    0.97752       .     S
C22   H29    0.98002       .     S
H29   C22    0.98002       .     S
C23   O24    1.42990       .     S
O24   C23    1.42990       .     S
C23   H30    0.98939       .     S
H30   C23    0.98939       .     S
C23   H31    0.99094       .     S
H31   C23    0.99094       .     S
O24   C25    1.35850   1_545     S
C25   O24    1.35850   1_565     S
C25   C26    1.47678   1_655     S
C26   C25    1.47678   1_455     S
C25   H32    0.99028       .     S
H32   C25    0.99028       .     S
C25   H33    0.97997       .     S
H33   C25    0.97997       .     S
C26   H34    0.97143       .     S
H34   C26    0.97143       .     S
C26   H35    0.97803       .     S
H35   C26    0.97803       .     S
C26   H36    0.98371   1_455     S
H36   C26    0.98371   1_655     S
N37   C38    1.36979       .     S
C38   N37    1.36979       .     S
N37   C41    1.37521       .     S
C41   N37    1.37521       .     S
C38   C39    1.45726       .     S
C39   C38    1.45726       .     S
C38   C93    1.40057       .     S
C93   C38    1.40057       .     S
C39   C40    1.34369       .     S
C40   C39    1.34369       .     S
C39   H67    0.92891       .     S
H67   C39    0.92891       .     S
C40   C41    1.45492       .     S
C41   C40    1.45492       .     S
C40   H68    0.93448       .     S
H68   C40    0.93448       .     S
C41   C42    1.40237       .     S
C42   C41    1.40237       .     S
C42   C43    1.39158       .     S
C43   C42    1.39158       .     S
C42   C49    1.48970       .     S
C49   C42    1.48970       .     S
C43   C44    1.43490       .     S
C44   C43    1.43490       .     S
C43   N47    1.38009       .     S
N47   C43    1.38009       .     S
C44   C45    1.35043       .     S
C45   C44    1.35043       .     S
C44   H69    0.93139       .     S
H69   C44    0.93139       .     S
C45   C46    1.43708       .     S
C46   C45    1.43708       .     S
C45   H70    0.94356   1_565     S
H70   C45    0.94356   1_545     S
C46   N47    1.37665       .     S
N47   C46    1.37665       .     S
C46   C48    1.39516       .     S
C48   C46    1.39516       .     S
N47   H79    0.85669       .     S
H79   N47    0.85669       .     S
C48   C58    1.49321       .     S
C58   C48    1.49321       .     S
C48   C83    1.40057       .     S
C83   C48    1.40057       .     S
C49   C50    1.39419       .     S
C50   C49    1.39419       .     S
C49   C54    1.39602   1_565     S
C54   C49    1.39602   1_545     S
C50   C51    1.38394       .     S
C51   C50    1.38394       .     S
C50   H71    0.93936       .     S
H71   C50    0.93936       .     S
C51   C52    1.38453   1_565     S
C52   C51    1.38453   1_545     S
C51   H72    0.91674   1_455     S
H72   C51    0.91674   1_655     S
C52   C53    1.38280       .     S
C53   C52    1.38280       .     S
C52   C55    1.49732   1_455     S
C55   C52    1.49732   1_655     S
C53   C54    1.38708       .     S
C54   C53    1.38708       .     S
C53   H73    0.94152       .     S
H73   C53    0.94152       .     S
C54   H74    0.93341       .     S
H74   C54    0.93341       .     S
C55   O56    1.21699       .     S
O56   C55    1.21699       .     S
C55   O57    1.32129       .     S
O57   C55    1.32129       .     S
O57   H81    0.85624       .     S
H81   O57    0.85624       .     S
C58   C59    1.39821   1_565     S
C59   C58    1.39821   1_545     S
C58   C63    1.39577       .     S
C63   C58    1.39577       .     S
C59   C60    1.38750       .     S
C60   C59    1.38750       .     S
C59   H75    0.94638       .     S
H75   C59    0.94638       .     S
C60   C61    1.38235       .     S
C61   C60    1.38235       .     S
C60   H76    0.93050       .     S
H76   C60    0.93050       .     S
C61   C62    1.39567   1_545     S
C62   C61    1.39567   1_565     S
C61   C64    1.49310       .     S
C64   C61    1.49310       .     S
C62   C63    1.37947       .     S
C63   C62    1.37947       .     S
C62   H77    0.93739       .     S
H77   C62    0.93739       .     S
C63   H78    0.94065       .     S
H78   C63    0.94065       .     S
C64   O65    1.32427       .     S
O65   C64    1.32427       .     S
C64   O66    1.20927       .     S
O66   C64    1.20927       .     S
O65   H80    0.83003       .     S
H80   O65    0.83003       .     S
N82   C83    1.36979       .     S
C83   N82    1.36979       .     S
N82   C86    1.37521       .     S
C86   N82    1.37521       .     S
C83   C84    1.45726       .     S
C84   C83    1.45726       .     S
C84   C85    1.34369       .     S
C85   C84    1.34369       .     S
C84   H112   0.92891       .     S
H112  C84    0.92891       .     S
C85   C86    1.45492       .     S
C86   C85    1.45492       .     S
C85   H113   0.93448       .     S
H113  C85    0.93448       .     S
C86   C87    1.40237       .     S
C87   C86    1.40237       .     S
C87   C88    1.39158       .     S
C88   C87    1.39158       .     S
C87   C94    1.48970       .     S
C94   C87    1.48970       .     S
C88   C89    1.43490       .     S
C89   C88    1.43490       .     S
C88   N92    1.38009       .     S
N92   C88    1.38009       .     S
C89   C90    1.35043       .     S
C90   C89    1.35043       .     S
C89   H114   0.93139       .     S
H114  C89    0.93139       .     S
C90   C91    1.43708       .     S
C91   C90    1.43708       .     S
C90   H115   0.94356   1_545     S
H115  C90    0.94356   1_565     S
C91   N92    1.37665       .     S
N92   C91    1.37665       .     S
C91   C93    1.39516       .     S
C93   C91    1.39516       .     S
N92   H124   0.85669       .     S
H124  N92    0.85669       .     S
C93   C103   1.49320       .     S
C103  C93    1.49320       .     S
C94   C95    1.39419       .     S
C95   C94    1.39419       .     S
C94   C99    1.39602   1_545     S
C99   C94    1.39602   1_565     S
C95   C96    1.38394       .     S
C96   C95    1.38394       .     S
C95   H116   0.93936       .     S
H116  C95    0.93936       .     S
C96   C97    1.38453   1_545     S
C97   C96    1.38453   1_565     S
C96   H117   0.91674   1_655     S
H117  C96    0.91674   1_455     S
C97   C98    1.38280       .     S
C98   C97    1.38280       .     S
C97   C100   1.49733   1_655     S
C100  C97    1.49733   1_455     S
C98   C99    1.38708       .     S
C99   C98    1.38708       .     S
C98   H118   0.94153       .     S
H118  C98    0.94153       .     S
C99   H119   0.93341       .     S
H119  C99    0.93341       .     S
C100  O101   1.21699       .     S
O101  C100   1.21699       .     S
C100  O102   1.32129       .     S
O102  C100   1.32129       .     S
O102  H126   0.85625       .     S
H126  O102   0.85625       .     S
C103  C104   1.39821   1_545     S
C104  C103   1.39821   1_565     S
C103  C108   1.39577       .     S
C108  C103   1.39577       .     S
C104  C105   1.38749       .     S
C105  C104   1.38749       .     S
C104  H120   0.94638       .     S
H120  C104   0.94638       .     S
C105  C106   1.38235       .     S
C106  C105   1.38235       .     S
C105  H121   0.93050       .     S
H121  C105   0.93050       .     S
C106  C107   1.39567   1_565     S
C107  C106   1.39567   1_545     S
C106  C109   1.49310       .     S
C109  C106   1.49310       .     S
C107  C108   1.37947       .     S
C108  C107   1.37947       .     S
C107  H122   0.93739       .     S
H122  C107   0.93739       .     S
C108  H123   0.94065       .     S
H123  C108   0.94065       .     S
C109  O110   1.32427       .     S
O110  C109   1.32427       .     S
C109  O111   1.20927       .     S
O111  C109   1.20927       .     S
O110  H125   0.83003       .     S
H125  O110   0.83003       .     S
N37   H79    2.35502       .     S
H79   N37    2.35502       .     S
N82   H79    2.43006       .     S
H79   N82    2.43006       .     S
N0    H80    1.82100       .     S
H80   N0     1.82100       .     S
N11   H81    1.78451       .     S
H81   N11    1.78451       .     S
N37   H124   2.43007       .     S
H124  N37    2.43007       .     S
N82   H124   2.35502       .     S
H124  N82    2.35502       .     S
C1    N0     1.33534       .     S
N0    C1     1.33534       .     S
C5    N0     1.33182       .     S
N0    C5     1.33182       .     S
C2    C1     1.36269       .     S
C1    C2     1.36269       .     S
H6    C1     0.94260       .     S
C1    H6     0.94260       .     S
C3    C2     1.38109       .     S
C2    C3     1.38109       .     S
H7    C2     0.94108       .     S
C2    H7     0.94108       .     S
C4    C3     1.37061       .     S
C3    C4     1.37061       .     S
H8    C3     0.93928       .     S
C3    H8     0.93928       .     S
C5    C4     1.37310       .     S
C4    C5     1.37310       .     S
H9    C4     0.94091       .     S
C4    H9     0.94091       .     S
H10   C5     0.94045       .     S
C5    H10    0.94045       .     S
C12   N11    1.33234       .     S
N11   C12    1.33234       .     S
C16   N11    1.32166       .     S
N11   C16    1.32166       .     S
C13   C12    1.37843       .     S
C12   C13    1.37843       .     S
H17   C12    0.93317       .     S
C12   H17    0.93317       .     S
C14   C13    1.37739       .     S
C13   C14    1.37739       .     S
H18   C13    0.93307       .     S
C13   H18    0.93307       .     S
C15   C14    1.36167       .     S
C14   C15    1.36167       .     S
H19   C14    0.93778       .     S
C14   H19    0.93778       .     S
C16   C15    1.36247       .     S
C15   C16    1.36247       .     S
H20   C15    0.94351       .     S
C15   H20    0.94351       .     S
H21   C16    0.94154       .     S
C16   H21    0.94154       .     S
C23   C22    1.47867       .     S
C22   C23    1.47867       .     S
H27   C22    0.97579       .     S
C22   H27    0.97579       .     S
H28   C22    0.97752       .     S
C22   H28    0.97752       .     S
H29   C22    0.98002       .     S
C22   H29    0.98002       .     S
O24   C23    1.42990       .     S
C23   O24    1.42990       .     S
H30   C23    0.98939       .     S
C23   H30    0.98939       .     S
H31   C23    0.99094       .     S
C23   H31    0.99094       .     S
C25   O24    1.35850   1_565     S
O24   C25    1.35850   1_545     S
C26   C25    1.47678   1_455     S
C25   C26    1.47678   1_655     S
H32   C25    0.99028       .     S
C25   H32    0.99028       .     S
H33   C25    0.97997       .     S
C25   H33    0.97997       .     S
H34   C26    0.97143       .     S
C26   H34    0.97143       .     S
H35   C26    0.97803       .     S
C26   H35    0.97803       .     S
H36   C26    0.98371   1_655     S
C26   H36    0.98371   1_455     S
C38   N37    1.36979       .     S
N37   C38    1.36979       .     S
C41   N37    1.37521       .     S
N37   C41    1.37521       .     S
C39   C38    1.45726       .     S
C38   C39    1.45726       .     S
C93   C38    1.40057       .     S
C38   C93    1.40057       .     S
C40   C39    1.34369       .     S
C39   C40    1.34369       .     S
H67   C39    0.92891       .     S
C39   H67    0.92891       .     S
C41   C40    1.45492       .     S
C40   C41    1.45492       .     S
H68   C40    0.93448       .     S
C40   H68    0.93448       .     S
C42   C41    1.40237       .     S
C41   C42    1.40237       .     S
C43   C42    1.39158       .     S
C42   C43    1.39158       .     S
C49   C42    1.48970       .     S
C42   C49    1.48970       .     S
C44   C43    1.43490       .     S
C43   C44    1.43490       .     S
N47   C43    1.38009       .     S
C43   N47    1.38009       .     S
C45   C44    1.35043       .     S
C44   C45    1.35043       .     S
H69   C44    0.93139       .     S
C44   H69    0.93139       .     S
C46   C45    1.43708       .     S
C45   C46    1.43708       .     S
H70   C45    0.94356   1_545     S
C45   H70    0.94356   1_565     S
N47   C46    1.37665       .     S
C46   N47    1.37665       .     S
C48   C46    1.39516       .     S
C46   C48    1.39516       .     S
H79   N47    0.85669       .     S
N47   H79    0.85669       .     S
C58   C48    1.49321       .     S
C48   C58    1.49321       .     S
C83   C48    1.40057       .     S
C48   C83    1.40057       .     S
C50   C49    1.39419       .     S
C49   C50    1.39419       .     S
C54   C49    1.39602   1_545     S
C49   C54    1.39602   1_565     S
C51   C50    1.38394       .     S
C50   C51    1.38394       .     S
H71   C50    0.93936       .     S
C50   H71    0.93936       .     S
C52   C51    1.38453   1_545     S
C51   C52    1.38453   1_565     S
H72   C51    0.91674   1_655     S
C51   H72    0.91674   1_455     S
C53   C52    1.38280       .     S
C52   C53    1.38280       .     S
C55   C52    1.49732   1_655     S
C52   C55    1.49732   1_455     S
C54   C53    1.38708       .     S
C53   C54    1.38708       .     S
H73   C53    0.94152       .     S
C53   H73    0.94152       .     S
H74   C54    0.93341       .     S
C54   H74    0.93341       .     S
O56   C55    1.21699       .     S
C55   O56    1.21699       .     S
O57   C55    1.32129       .     S
C55   O57    1.32129       .     S
H81   O57    0.85624       .     S
O57   H81    0.85624       .     S
C59   C58    1.39821   1_545     S
C58   C59    1.39821   1_565     S
C63   C58    1.39577       .     S
C58   C63    1.39577       .     S
C60   C59    1.38750       .     S
C59   C60    1.38750       .     S
H75   C59    0.94638       .     S
C59   H75    0.94638       .     S
C61   C60    1.38235       .     S
C60   C61    1.38235       .     S
H76   C60    0.93050       .     S
C60   H76    0.93050       .     S
C62   C61    1.39567   1_565     S
C61   C62    1.39567   1_545     S
C64   C61    1.49310       .     S
C61   C64    1.49310       .     S
C63   C62    1.37947       .     S
C62   C63    1.37947       .     S
H77   C62    0.93739       .     S
C62   H77    0.93739       .     S
H78   C63    0.94065       .     S
C63   H78    0.94065       .     S
O65   C64    1.32427       .     S
C64   O65    1.32427       .     S
O66   C64    1.20927       .     S
C64   O66    1.20927       .     S
H80   O65    0.83003       .     S
O65   H80    0.83003       .     S
C83   N82    1.36979       .     S
N82   C83    1.36979       .     S
C86   N82    1.37521       .     S
N82   C86    1.37521       .     S
C84   C83    1.45726       .     S
C83   C84    1.45726       .     S
C85   C84    1.34369       .     S
C84   C85    1.34369       .     S
H112  C84    0.92891       .     S
C84   H112   0.92891       .     S
C86   C85    1.45492       .     S
C85   C86    1.45492       .     S
H113  C85    0.93448       .     S
C85   H113   0.93448       .     S
C87   C86    1.40237       .     S
C86   C87    1.40237       .     S
C88   C87    1.39158       .     S
C87   C88    1.39158       .     S
C94   C87    1.48970       .     S
C87   C94    1.48970       .     S
C89   C88    1.43490       .     S
C88   C89    1.43490       .     S
N92   C88    1.38009       .     S
C88   N92    1.38009       .     S
C90   C89    1.35043       .     S
C89   C90    1.35043       .     S
H114  C89    0.93139       .     S
C89   H114   0.93139       .     S
C91   C90    1.43708       .     S
C90   C91    1.43708       .     S
H115  C90    0.94356   1_565     S
C90   H115   0.94356   1_545     S
N92   C91    1.37665       .     S
C91   N92    1.37665       .     S
C93   C91    1.39516       .     S
C91   C93    1.39516       .     S
H124  N92    0.85669       .     S
N92   H124   0.85669       .     S
C103  C93    1.49320       .     S
C93   C103   1.49320       .     S
C95   C94    1.39419       .     S
C94   C95    1.39419       .     S
C99   C94    1.39602   1_565     S
C94   C99    1.39602   1_545     S
C96   C95    1.38394       .     S
C95   C96    1.38394       .     S
H116  C95    0.93936       .     S
C95   H116   0.93936       .     S
C97   C96    1.38453   1_565     S
C96   C97    1.38453   1_545     S
H117  C96    0.91674   1_455     S
C96   H117   0.91674   1_655     S
C98   C97    1.38280       .     S
C97   C98    1.38280       .     S
C100  C97    1.49733   1_455     S
C97   C100   1.49733   1_655     S
C99   C98    1.38708       .     S
C98   C99    1.38708       .     S
H118  C98    0.94153       .     S
C98   H118   0.94153       .     S
H119  C99    0.93341       .     S
C99   H119   0.93341       .     S
O101  C100   1.21699       .     S
C100  O101   1.21699       .     S
O102  C100   1.32129       .     S
C100  O102   1.32129       .     S
H126  O102   0.85625       .     S
O102  H126   0.85625       .     S
C104  C103   1.39821   1_565     S
C103  C104   1.39821   1_545     S
C108  C103   1.39577       .     S
C103  C108   1.39577       .     S
C105  C104   1.38749       .     S
C104  C105   1.38749       .     S
H120  C104   0.94638       .     S
C104  H120   0.94638       .     S
C106  C105   1.38235       .     S
C105  C106   1.38235       .     S
H121  C105   0.93050       .     S
C105  H121   0.93050       .     S
C107  C106   1.39567   1_545     S
C106  C107   1.39567   1_565     S
C109  C106   1.49310       .     S
C106  C109   1.49310       .     S
C108  C107   1.37947       .     S
C107  C108   1.37947       .     S
H122  C107   0.93739       .     S
C107  H122   0.93739       .     S
H123  C108   0.94065       .     S
C108  H123   0.94065       .     S
O110  C109   1.32427       .     S
C109  O110   1.32427       .     S
O111  C109   1.20927       .     S
C109  O111   1.20927       .     S
H125  O110   0.83003       .     S
O110  H125   0.83003       .     S
