data_I
_chemical_name_common  '/data/user2/wty/HOF/MOFDiff/mofdiff/data/test/294-3_4'
_cell_length_a 10.86990
_cell_length_b 24.13470
_cell_length_c 24.70760
_cell_angle_alpha 90.00000
_cell_angle_beta  90.00000
_cell_angle_gamma 90.00000
_space_group_name_H-M_alt      'P 1'


loop_
_space_group_symop_operation_xyz
  'x, y, z' 

loop_
_atom_site_label
_atom_site_fract_x
_atom_site_fract_y
_atom_site_fract_z
_atom_site_type_symbol
H0      0.5374   0.6752   0.4168     H
N1     0.61434  0.67153  0.32172     N
N2     0.61576  0.66605   0.4142     N
C3     0.67235  0.66429  0.36754     C
N4     0.97625  0.58579  0.50478     N
N5     0.12904  0.54991  0.45179     N
C6     0.03132  0.58111  0.45742     C
C7     0.80745  0.65415   0.3673     C
C8     0.85611  0.62292  0.40888     C
C9     0.98209  0.61257  0.41109     C
C10     0.0576   0.6335  0.37072     C
C11     0.0091  0.66463  0.32904     C
C12     0.8836  0.67573  0.32723     C
H13     0.8024   0.6072   0.4355     H
H14      0.144   0.6255   0.3721     H
H15     0.0607   0.6792   0.3009     H
H16     0.8497    0.698    0.299     H
H17      0.166   0.5466   0.4227     H
H18      0.916   0.6081   0.5105     H
H19      0.657    0.663   0.4447     H
H20      0.159   0.5336   0.4794     H
H21      0.007   0.5682   0.5343     H
H22       0.65   0.6641   0.2898     H
H23     0.5345     0.68   0.3218     H
O24     0.3735   0.7051  0.42165     O
O25     0.7287  0.04465  0.85204     O
C26       0.75      0.0   0.8292     C
C27       0.75      0.0  0.76708     C
C28     0.7627  0.04917  0.73828     C
C29     0.7632  0.04931  0.68217     C
C30       0.75      0.0  0.65289     C
C31       0.75      0.0  0.59217     C
C32     0.6564  0.02728  0.56487     C
N33    0.65544  0.03741  0.50952     N
C34    0.56311  0.07604  0.50211     C
C35     0.5571  0.05567  0.59076     C
C36      0.501  0.08688  0.55234     C
C37    0.53686  0.10346  0.45454     C
C38    0.58767  0.08734  0.40549     C
N39    0.66708  0.04319  0.39816     N
C40    0.68132  0.03972  0.34278     C
C41     0.5562  0.11225  0.35497     C
C42     0.6134  0.08261   0.3161     C
C43       0.75      0.0  0.31555     C
C44       0.75      0.0  0.25542     C
C45    0.64212  0.98796  0.22675     C
C46    0.64225  0.98772  0.17061     C
C47       0.75      0.0    0.142     C
C48       0.75      0.0  0.08111     C
O49    0.65639  0.98167  0.05755     O
C50    0.45337  0.15277  0.45542     C
C51    0.49861  0.20451  0.47023     C
C52    0.42234  0.25084  0.47039     C
C53    0.29989  0.24634  0.45427     C
C54    0.25557  0.19508  0.43844     C
C55    0.33032  0.14862  0.43956     C
C56    0.21607  0.29656  0.45392     C
O57    0.23855  0.33527  0.48595     O
O58     0.1265   0.2949  0.42165     O
Ni59      0.75      0.0  0.45383    Ni
H60     0.7719   0.0839   0.7571     H
H61     0.7726   0.0842   0.6633     H
H62     0.5368   0.0524   0.6282     H
H63     0.4333   0.1113   0.5569     H
H64     0.5042   0.1437   0.3502     H
H65     0.6111   0.0885   0.2781     H
H66     0.5677   0.9802   0.2461     H
H67     0.5683    0.979   0.1519     H
H68     0.5818   0.2083   0.4807     H
H69     0.4537   0.2855   0.4815     H
H70     0.1724   0.1915   0.4272     H
H71     0.2973   0.1124   0.4308     H
O72     0.7713  0.95535  0.85204     O
C73     0.7373  0.95083  0.73828     C
C74     0.7368  0.95069  0.68217     C
C75     0.8436  0.97272  0.56487     C
N76    0.84456  0.96259  0.50952     N
C77    0.93689  0.92396  0.50211     C
C78     0.9429  0.94433  0.59076     C
C79      0.999  0.91312  0.55234     C
C80    0.96314  0.89654  0.45454     C
C81    0.91233  0.91266  0.40549     C
N82    0.83292  0.95681  0.39816     N
C83    0.81868  0.96028  0.34278     C
C84     0.9438  0.88775  0.35497     C
C85     0.8866  0.91739   0.3161     C
C86    0.85788  0.01204  0.22675     C
C87    0.85775  0.01228  0.17061     C
O88    0.84361  0.01833  0.05755     O
C89    0.04663  0.84723  0.45542     C
C90    0.00139  0.79549  0.47023     C
C91    0.07766  0.74916  0.47039     C
C92    0.20011  0.75366  0.45427     C
C93    0.24443  0.80492  0.43844     C
C94    0.16968  0.85138  0.43956     C
C95    0.28393  0.70344  0.45392     C
O96    0.26145  0.66473  0.48595     O
H97     0.7281   0.9161   0.7571     H
H98     0.7274   0.9158   0.6633     H
H99     0.9632   0.9476   0.6282     H
H100    0.0667   0.8887   0.5569     H
H101    0.9958   0.8563   0.3502     H
H102    0.8889   0.9115   0.2781     H
H103    0.9323   0.0198   0.2461     H
H104    0.9317    0.021   0.1519     H
H105    0.9182   0.7917   0.4807     H
H106    0.0463   0.7145   0.4815     H
H107    0.3276   0.8085   0.4272     H
H108    0.2027   0.8876   0.4308     H
O109   0.85539  0.65105  0.67581     O
H110     0.888   0.6224     0.66     H
H111      0.85    0.666   0.6446     H
loop_
_geom_bond_atom_site_label_1
_geom_bond_atom_site_label_2
_geom_bond_distance
_geom_bond_site_symmetry_2
_ccdc_geom_bond_type
H0    O24    1.92591       .     S
O24   H0     1.92591       .     S
H0    N2     0.88227       .     S
N2    H0     0.88227       .     S
N1    C3     1.30759       .     S
C3    N1     1.30759       .     S
N1    H22    0.89688       .     S
H22   N1     0.89688       .     S
N1    H23    0.89161       .     S
H23   N1     0.89161       .     S
N2    C3     1.30739       .     S
C3    N2     1.30739       .     S
N2    H19    0.87992       .     S
H19   N2     0.87992       .     S
C3    C7     1.48879       .     S
C7    C3     1.48879       .     S
N4    C6     1.31922   1_655     S
C6    N4     1.31922   1_455     S
N4    H18    0.85954       .     S
H18   N4     0.85954       .     S
N4    H21    0.90771   1_655     S
H21   N4     0.90771   1_455     S
N5    C6     1.30944       .     S
C6    N5     1.30944       .     S
N5    H17    0.82727       .     S
H17   N5     0.82727       .     S
N5    H20    0.85227       .     S
H20   N5     0.85227       .     S
C6    C9     1.47418   1_455     S
C9    C6     1.47418   1_655     S
C7    C8     1.37960       .     S
C8    C7     1.37960       .     S
C7    C12    1.39161       .     S
C12   C7     1.39161       .     S
C8    C9     1.39306       .     S
C9    C8     1.39306       .     S
C8    H13    0.95780       .     S
H13   C8     0.95780       .     S
C9    C10    1.38699   1_655     S
C10   C9     1.38699   1_455     S
C10   C11    1.37946       .     S
C11   C10    1.37946       .     S
C10   H14    0.95941       .     S
H14   C10    0.95941       .     S
C11   C12    1.39095   1_455     S
C12   C11    1.39095   1_655     S
C11   H15    0.96003       .     S
H15   C11    0.96003       .     S
C12   H16    0.95455       .     S
H16   C12    0.95455       .     S
O24   C95    1.25907       .     S
C95   O24    1.25907       .     S
O25   C26    1.23827       .     S
C26   O25    1.23827       .     S
C26   C27    1.53484       .     S
C27   C26    1.53484       .     S
C26   O72    1.23827   1_545     S
O72   C26    1.23827   1_565     S
C27   C28    1.39056       .     S
C28   C27    1.39056       .     S
C27   C73    1.39056   1_545     S
C73   C27    1.39056   1_565     S
C28   C29    1.38636       .     S
C29   C28    1.38636       .     S
C28   H60    0.96374       .     S
H60   C28    0.96374       .     S
C29   C30    1.40009       .     S
C30   C29    1.40009       .     S
C29   H61    0.96792       .     S
H61   C29    0.96792       .     S
C30   C31    1.50025       .     S
C31   C30    1.50025       .     S
C30   C74    1.40009   1_545     S
C74   C30    1.40009   1_565     S
C31   C32    1.38694       .     S
C32   C31    1.38694       .     S
C31   C75    1.38694   1_545     S
C75   C31    1.38694   1_565     S
C32   N33    1.38929       .     S
N33   C32    1.38929       .     S
C32   C35    1.42959       .     S
C35   C32    1.42959       .     S
N33   C34    1.38203       .     S
C34   N33    1.38203       .     S
N33   Ni59   1.94035       .     S
Ni59  N33    1.94035       .     S
C34   C36    1.43683       .     S
C36   C34    1.43683       .     S
C34   C37    1.37869       .     S
C37   C34    1.37869       .     S
C35   C36    1.35659       .     S
C36   C35    1.35659       .     S
C35   H62    0.95428       .     S
H62   C35    0.95428       .     S
C36   H63    0.94952       .     S
H63   C36    0.94952       .     S
C37   C38    1.38749       .     S
C38   C37    1.38749       .     S
C37   C50    1.49679       .     S
C50   C37    1.49679       .     S
C38   N39    1.38321       .     S
N39   C38    1.38321       .     S
C38   C41    1.42707       .     S
C41   C38    1.42707       .     S
N39   C40    1.37958       .     S
C40   N39    1.37958       .     S
N39   Ni59   1.94702       .     S
Ni59  N39    1.94702       .     S
C40   C42    1.43217       .     S
C42   C40    1.43217       .     S
C40   C43    1.38886       .     S
C43   C40    1.38886       .     S
C41   C42    1.34931       .     S
C42   C41    1.34931       .     S
C41   H64    0.95369       .     S
H64   C41    0.95369       .     S
C42   H65    0.94992       .     S
H65   C42    0.94992       .     S
C43   C44    1.48567       .     S
C44   C43    1.48567       .     S
C43   C83    1.38886   1_545     S
C83   C43    1.38886   1_565     S
C44   C45    1.40047   1_545     S
C45   C44    1.40047   1_565     S
C44   C86    1.40047       .     S
C86   C44    1.40047       .     S
C45   C46    1.38710       .     S
C46   C45    1.38710       .     S
C45   H66    0.95814       .     S
H66   C45    0.95814       .     S
C46   C47    1.39975   1_565     S
C47   C46    1.39975   1_545     S
C46   H67    0.95086       .     S
H67   C46    0.95086       .     S
C47   C48    1.50445       .     S
C48   C47    1.50445       .     S
C47   C87    1.39975       .     S
C87   C47    1.39975       .     S
C48   O49    1.25297   1_545     S
O49   C48    1.25297   1_565     S
C48   O88    1.25297       .     S
O88   C48    1.25297       .     S
C50   C51    1.39106       .     S
C51   C50    1.39106       .     S
C50   C55    1.39736       .     S
C55   C50    1.39736       .     S
C51   C52    1.39198       .     S
C52   C51    1.39198       .     S
C51   H68    0.94498       .     S
H68   C51    0.94498       .     S
C52   C53    1.39357       .     S
C53   C52    1.39357       .     S
C52   H69    0.94409       .     S
H69   C52    0.94409       .     S
C53   C54    1.38405       .     S
C54   C53    1.38405       .     S
C53   C56    1.51633       .     S
C56   C53    1.51633       .     S
C54   C55    1.38502       .     S
C55   C54    1.38502       .     S
C54   H70    0.94968       .     S
H70   C54    0.94968       .     S
C55   H71    0.96945       .     S
H71   C55    0.96945       .     S
C56   O57    1.24853       .     S
O57   C56    1.24853       .     S
C56   O58    1.25906       .     S
O58   C56    1.25906       .     S
Ni59  N76    1.94035   1_545     S
N76   Ni59   1.94035   1_565     S
Ni59  N82    1.94702   1_545     S
N82   Ni59   1.94702   1_565     S
C73   C74    1.38636       .     S
C74   C73    1.38636       .     S
C73   H97    0.96374       .     S
H97   C73    0.96374       .     S
C74   H98    0.96792       .     S
H98   C74    0.96792       .     S
C75   N76    1.38929       .     S
N76   C75    1.38929       .     S
C75   C78    1.42959       .     S
C78   C75    1.42959       .     S
N76   C77    1.38203       .     S
C77   N76    1.38203       .     S
C77   C79    1.43683       .     S
C79   C77    1.43683       .     S
C77   C80    1.37869       .     S
C80   C77    1.37869       .     S
C78   C79    1.35659       .     S
C79   C78    1.35659       .     S
C78   H99    0.95428       .     S
H99   C78    0.95428       .     S
C79   H100   0.94952   1_655     S
H100  C79    0.94952   1_455     S
C80   C81    1.38749       .     S
C81   C80    1.38749       .     S
C80   C89    1.49679   1_655     S
C89   C80    1.49679   1_455     S
C81   N82    1.38321       .     S
N82   C81    1.38321       .     S
C81   C84    1.42707       .     S
C84   C81    1.42707       .     S
N82   C83    1.37958       .     S
C83   N82    1.37958       .     S
C83   C85    1.43217       .     S
C85   C83    1.43217       .     S
C84   C85    1.34931       .     S
C85   C84    1.34931       .     S
C84   H101   0.95369       .     S
H101  C84    0.95369       .     S
C85   H102   0.94992       .     S
H102  C85    0.94992       .     S
C86   C87    1.38710       .     S
C87   C86    1.38710       .     S
C86   H103   0.95814       .     S
H103  C86    0.95814       .     S
C87   H104   0.95086       .     S
H104  C87    0.95086       .     S
C89   C90    1.39106       .     S
C90   C89    1.39106       .     S
C89   C94    1.39736       .     S
C94   C89    1.39736       .     S
C90   C91    1.39198       .     S
C91   C90    1.39198       .     S
C90   H105   0.94498   1_455     S
H105  C90    0.94498   1_655     S
C91   C92    1.39357       .     S
C92   C91    1.39357       .     S
C91   H106   0.94408       .     S
H106  C91    0.94408       .     S
C92   C93    1.38405       .     S
C93   C92    1.38405       .     S
C92   C95    1.51633       .     S
C95   C92    1.51633       .     S
C93   C94    1.38502       .     S
C94   C93    1.38502       .     S
C93   H107   0.94968       .     S
H107  C93    0.94968       .     S
C94   H108   0.96945       .     S
H108  C94    0.96945       .     S
C95   O96    1.24853       .     S
O96   C95    1.24853       .     S
O109  H110   0.86968       .     S
H110  O109   0.86968       .     S
O109  H111   0.85338       .     S
H111  O109   0.85338       .     S
O24   H0     1.92591       .     S
H0    O24    1.92591       .     S
N2    H0     0.88227       .     S
H0    N2     0.88227       .     S
C3    N1     1.30759       .     S
N1    C3     1.30759       .     S
H22   N1     0.89688       .     S
N1    H22    0.89688       .     S
H23   N1     0.89161       .     S
N1    H23    0.89161       .     S
C3    N2     1.30739       .     S
N2    C3     1.30739       .     S
H19   N2     0.87992       .     S
N2    H19    0.87992       .     S
C7    C3     1.48879       .     S
C3    C7     1.48879       .     S
C6    N4     1.31922   1_455     S
N4    C6     1.31922   1_655     S
H18   N4     0.85954       .     S
N4    H18    0.85954       .     S
H21   N4     0.90771   1_455     S
N4    H21    0.90771   1_655     S
C6    N5     1.30944       .     S
N5    C6     1.30944       .     S
H17   N5     0.82727       .     S
N5    H17    0.82727       .     S
H20   N5     0.85227       .     S
N5    H20    0.85227       .     S
C9    C6     1.47418   1_655     S
C6    C9     1.47418   1_455     S
C8    C7     1.37960       .     S
C7    C8     1.37960       .     S
C12   C7     1.39161       .     S
C7    C12    1.39161       .     S
C9    C8     1.39306       .     S
C8    C9     1.39306       .     S
H13   C8     0.95780       .     S
C8    H13    0.95780       .     S
C10   C9     1.38699   1_455     S
C9    C10    1.38699   1_655     S
C11   C10    1.37946       .     S
C10   C11    1.37946       .     S
H14   C10    0.95941       .     S
C10   H14    0.95941       .     S
C12   C11    1.39095   1_655     S
C11   C12    1.39095   1_455     S
H15   C11    0.96003       .     S
C11   H15    0.96003       .     S
H16   C12    0.95455       .     S
C12   H16    0.95455       .     S
C95   O24    1.25907       .     S
O24   C95    1.25907       .     S
C26   O25    1.23827       .     S
O25   C26    1.23827       .     S
C27   C26    1.53484       .     S
C26   C27    1.53484       .     S
O72   C26    1.23827   1_565     S
C26   O72    1.23827   1_545     S
C28   C27    1.39056       .     S
C27   C28    1.39056       .     S
C73   C27    1.39056   1_565     S
C27   C73    1.39056   1_545     S
C29   C28    1.38636       .     S
C28   C29    1.38636       .     S
H60   C28    0.96374       .     S
C28   H60    0.96374       .     S
C30   C29    1.40009       .     S
C29   C30    1.40009       .     S
H61   C29    0.96792       .     S
C29   H61    0.96792       .     S
C31   C30    1.50025       .     S
C30   C31    1.50025       .     S
C74   C30    1.40009   1_565     S
C30   C74    1.40009   1_545     S
C32   C31    1.38694       .     S
C31   C32    1.38694       .     S
C75   C31    1.38694   1_565     S
C31   C75    1.38694   1_545     S
N33   C32    1.38929       .     S
C32   N33    1.38929       .     S
C35   C32    1.42959       .     S
C32   C35    1.42959       .     S
C34   N33    1.38203       .     S
N33   C34    1.38203       .     S
Ni59  N33    1.94035       .     S
N33   Ni59   1.94035       .     S
C36   C34    1.43683       .     S
C34   C36    1.43683       .     S
C37   C34    1.37869       .     S
C34   C37    1.37869       .     S
C36   C35    1.35659       .     S
C35   C36    1.35659       .     S
H62   C35    0.95428       .     S
C35   H62    0.95428       .     S
H63   C36    0.94952       .     S
C36   H63    0.94952       .     S
C38   C37    1.38749       .     S
C37   C38    1.38749       .     S
C50   C37    1.49679       .     S
C37   C50    1.49679       .     S
N39   C38    1.38321       .     S
C38   N39    1.38321       .     S
C41   C38    1.42707       .     S
C38   C41    1.42707       .     S
C40   N39    1.37958       .     S
N39   C40    1.37958       .     S
Ni59  N39    1.94702       .     S
N39   Ni59   1.94702       .     S
C42   C40    1.43217       .     S
C40   C42    1.43217       .     S
C43   C40    1.38886       .     S
C40   C43    1.38886       .     S
C42   C41    1.34931       .     S
C41   C42    1.34931       .     S
H64   C41    0.95369       .     S
C41   H64    0.95369       .     S
H65   C42    0.94992       .     S
C42   H65    0.94992       .     S
C44   C43    1.48567       .     S
C43   C44    1.48567       .     S
C83   C43    1.38886   1_565     S
C43   C83    1.38886   1_545     S
C45   C44    1.40047   1_565     S
C44   C45    1.40047   1_545     S
C86   C44    1.40047       .     S
C44   C86    1.40047       .     S
C46   C45    1.38710       .     S
C45   C46    1.38710       .     S
H66   C45    0.95814       .     S
C45   H66    0.95814       .     S
C47   C46    1.39975   1_545     S
C46   C47    1.39975   1_565     S
H67   C46    0.95086       .     S
C46   H67    0.95086       .     S
C48   C47    1.50445       .     S
C47   C48    1.50445       .     S
C87   C47    1.39975       .     S
C47   C87    1.39975       .     S
O49   C48    1.25297   1_565     S
C48   O49    1.25297   1_545     S
O88   C48    1.25297       .     S
C48   O88    1.25297       .     S
C51   C50    1.39106       .     S
C50   C51    1.39106       .     S
C55   C50    1.39736       .     S
C50   C55    1.39736       .     S
C52   C51    1.39198       .     S
C51   C52    1.39198       .     S
H68   C51    0.94498       .     S
C51   H68    0.94498       .     S
C53   C52    1.39357       .     S
C52   C53    1.39357       .     S
H69   C52    0.94409       .     S
C52   H69    0.94409       .     S
C54   C53    1.38405       .     S
C53   C54    1.38405       .     S
C56   C53    1.51633       .     S
C53   C56    1.51633       .     S
C55   C54    1.38502       .     S
C54   C55    1.38502       .     S
H70   C54    0.94968       .     S
C54   H70    0.94968       .     S
H71   C55    0.96945       .     S
C55   H71    0.96945       .     S
O57   C56    1.24853       .     S
C56   O57    1.24853       .     S
O58   C56    1.25906       .     S
C56   O58    1.25906       .     S
N76   Ni59   1.94035   1_565     S
Ni59  N76    1.94035   1_545     S
N82   Ni59   1.94702   1_565     S
Ni59  N82    1.94702   1_545     S
C74   C73    1.38636       .     S
C73   C74    1.38636       .     S
H97   C73    0.96374       .     S
C73   H97    0.96374       .     S
H98   C74    0.96792       .     S
C74   H98    0.96792       .     S
N76   C75    1.38929       .     S
C75   N76    1.38929       .     S
C78   C75    1.42959       .     S
C75   C78    1.42959       .     S
C77   N76    1.38203       .     S
N76   C77    1.38203       .     S
C79   C77    1.43683       .     S
C77   C79    1.43683       .     S
C80   C77    1.37869       .     S
C77   C80    1.37869       .     S
C79   C78    1.35659       .     S
C78   C79    1.35659       .     S
H99   C78    0.95428       .     S
C78   H99    0.95428       .     S
H100  C79    0.94952   1_455     S
C79   H100   0.94952   1_655     S
C81   C80    1.38749       .     S
C80   C81    1.38749       .     S
C89   C80    1.49679   1_455     S
C80   C89    1.49679   1_655     S
N82   C81    1.38321       .     S
C81   N82    1.38321       .     S
C84   C81    1.42707       .     S
C81   C84    1.42707       .     S
C83   N82    1.37958       .     S
N82   C83    1.37958       .     S
C85   C83    1.43217       .     S
C83   C85    1.43217       .     S
C85   C84    1.34931       .     S
C84   C85    1.34931       .     S
H101  C84    0.95369       .     S
C84   H101   0.95369       .     S
H102  C85    0.94992       .     S
C85   H102   0.94992       .     S
C87   C86    1.38710       .     S
C86   C87    1.38710       .     S
H103  C86    0.95814       .     S
C86   H103   0.95814       .     S
H104  C87    0.95086       .     S
C87   H104   0.95086       .     S
C90   C89    1.39106       .     S
C89   C90    1.39106       .     S
C94   C89    1.39736       .     S
C89   C94    1.39736       .     S
C91   C90    1.39198       .     S
C90   C91    1.39198       .     S
H105  C90    0.94498   1_655     S
C90   H105   0.94498   1_455     S
C92   C91    1.39357       .     S
C91   C92    1.39357       .     S
H106  C91    0.94408       .     S
C91   H106   0.94408       .     S
C93   C92    1.38405       .     S
C92   C93    1.38405       .     S
C95   C92    1.51633       .     S
C92   C95    1.51633       .     S
C94   C93    1.38502       .     S
C93   C94    1.38502       .     S
H107  C93    0.94968       .     S
C93   H107   0.94968       .     S
H108  C94    0.96945       .     S
C94   H108   0.96945       .     S
O96   C95    1.24853       .     S
C95   O96    1.24853       .     S
H110  O109   0.86968       .     S
O109  H110   0.86968       .     S
H111  O109   0.85338       .     S
O109  H111   0.85338       .     S
