data_I
_chemical_name_common  '/data/user2/wty/HOF/MOFDiff/mofdiff/data/test/295-upc-hof-6'
_cell_length_a 14.90240
_cell_length_b 21.93100
_cell_length_c 16.27220
_cell_angle_alpha 90.00000
_cell_angle_beta  99.13100
_cell_angle_gamma 90.00000
_space_group_name_H-M_alt      'P 1'


loop_
_space_group_symop_operation_xyz
  'x, y, z' 

loop_
_atom_site_label
_atom_site_fract_x
_atom_site_fract_y
_atom_site_fract_z
_atom_site_type_symbol
N0         0.0  0.38831     0.75     N
N1      0.2918  0.09764   0.4356     N
N2      0.2053  0.18336   0.4422     N
H3      0.1994   0.2211   0.4548     H
H4      0.1587   0.1626   0.4202     H
N5       0.451  0.10121   0.4843     N
N6      0.8682   0.9643   0.6573     N
H7      0.8686   0.0035   0.6574     H
H8      0.8249   0.9449    0.627     H
N9      0.9331  0.87236   0.7009     N
N10     0.3584  0.19061  0.49123     N
C11      0.922  0.35524   0.7152     C
C12        0.0   0.7768     0.75     C
C13     0.2873  0.15692   0.4569     C
N14        0.0   0.9653     0.75     N
C15     0.5983  0.29075   0.5765     C
H16     0.5957    0.333   0.5808     H
C17     0.8526  0.27444    0.629     C
H18     0.8597   0.2401   0.5971     H
C19     0.9267  0.30509   0.6636     C
H20     0.9832   0.2925   0.6528     H
C21        0.0   0.4514     0.75     C
C22        0.0   0.8442     0.75     C
C23     0.9471  0.54834   0.6884     C
H24     0.9096   0.5692   0.6466     H
C25        0.0   0.5819     0.75     C
C26        0.0   0.6481     0.75     C
C27     0.5242  0.19409   0.5369     C
C28     0.9209  0.68086   0.7258     C
H29     0.8668   0.6598   0.7097     H
C30     0.9198  0.74343   0.7249     C
H31     0.8655   0.7639   0.7074     H
C32     0.7625  0.29256   0.6394     C
N33     0.3804  0.01349   0.4358     N
H34     0.3329   0.9936   0.4139     H
H35     0.4321   0.9953   0.4463     H
C36     0.7581  0.34271   0.6907     C
H37     0.7013   0.3562   0.6996     H
C38     0.9362   0.9329   0.7052     C
C39     0.6813    0.259   0.6023     C
C40     0.5212   0.2573   0.5448     C
H41     0.4664   0.2776   0.5286     H
C42     0.8363  0.37429     0.73     C
H43     0.8308   0.4071    0.765     H
C44      0.374   0.0716   0.4533     C
C45     0.6044   0.1645   0.5586     C
H46     0.6062   0.1224   0.5515     H
C47     0.9474  0.48578   0.6859     C
H48     0.9125   0.4657   0.6417     H
C49     0.4394   0.1611   0.5026     C
C50     0.6841   0.1949   0.5913     C
H51     0.7383   0.1736   0.6056     H
loop_
_geom_bond_atom_site_label_1
_geom_bond_atom_site_label_2
_geom_bond_distance
_geom_bond_site_symmetry_2
_ccdc_geom_bond_type
N0    C11    1.41028   1_455     S
C11   N0     1.41028   1_655     S
N0    C21    1.38363       .     S
C21   N0     1.38363       .     S
N1    C13    1.34988       .     S
C13   N1     1.34988       .     S
N1    C44    1.34078       .     S
C44   N1     1.34078       .     S
N2    H3     0.86054       .     S
H3    N2     0.86054       .     S
N2    H4     0.85954       .     S
H4    N2     0.85954       .     S
N2    C13    1.33939       .     S
C13   N2     1.33939       .     S
N5    C44    1.34505       .     S
C44   N5     1.34505       .     S
N5    C49    1.36383       .     S
C49   N5     1.36383       .     S
N6    H7     0.85972   1_565     S
H7    N6     0.85972   1_545     S
N6    H8     0.85995       .     S
H8    N6     0.85995       .     S
N6    C38    1.36307       .     S
C38   N6     1.36307       .     S
N9    C22    1.32698   1_655     S
C22   N9     1.32698   1_455     S
N9    C38    1.32996       .     S
C38   N9     1.32996       .     S
N10   C13    1.33895       .     S
C13   N10    1.33895       .     S
N10   C49    1.35620       .     S
C49   N10    1.35620       .     S
C11   C19    1.39220       .     S
C19   C11    1.39220       .     S
C11   C42    1.40044       .     S
C42   C11    1.40044       .     S
C12   C22    1.47815       .     S
C22   C12    1.47815       .     S
C12   C30    1.40567   1_455     S
C30   C12    1.40567   1_655     S
N14   C38    1.31161   1_455     S
C38   N14    1.31161   1_655     S
C15   H16    0.93049       .     S
H16   C15    0.93049       .     S
C15   C39    1.42345       .     S
C39   C15    1.42345       .     S
C15   C40    1.39150       .     S
C40   C15    1.39150       .     S
C17   H18    0.93019       .     S
H18   C17    0.93019       .     S
C17   C19    1.33825       .     S
C19   C17    1.33825       .     S
C17   C32    1.43581       .     S
C32   C17    1.43581       .     S
C19   H20    0.92899       .     S
H20   C19    0.92899       .     S
C21   C47    1.41824   1_455     S
C47   C21    1.41824   1_655     S
C23   H24    0.92930       .     S
H24   C23    0.92930       .     S
C23   C25    1.38460   1_655     S
C25   C23    1.38460   1_455     S
C23   C47    1.37264       .     S
C47   C23    1.37264       .     S
C25   C26    1.45183       .     S
C26   C25    1.45183       .     S
C26   C28    1.38327   1_455     S
C28   C26    1.38327   1_655     S
C27   C40    1.39358       .     S
C40   C27    1.39358       .     S
C27   C45    1.35658       .     S
C45   C27    1.35658       .     S
C27   C49    1.48597       .     S
C49   C27    1.48597       .     S
C28   H29    0.93000       .     S
H29   C28    0.93000       .     S
C28   C30    1.37237       .     S
C30   C28    1.37237       .     S
C30   H31    0.92968       .     S
H31   C30    0.92968       .     S
C32   C36    1.38858       .     S
C36   C32    1.38858       .     S
C32   C39    1.46239       .     S
C39   C32    1.46239       .     S
N33   H34    0.85923   1_545     S
H34   N33    0.85923   1_565     S
N33   H35    0.86032   1_545     S
H35   N33    0.86032   1_565     S
N33   C44    1.31260       .     S
C44   N33    1.31260       .     S
C36   H37    0.92946       .     S
H37   C36    0.92946       .     S
C36   C42    1.41781       .     S
C42   C36    1.41781       .     S
C39   C50    1.41858       .     S
C50   C39    1.41858       .     S
C40   H41    0.93075       .     S
H41   C40    0.93075       .     S
C42   H43    0.92933       .     S
H43   C42    0.92933       .     S
C45   H46    0.93141       .     S
H46   C45    0.93141       .     S
C45   C50    1.39202       .     S
C50   C45    1.39202       .     S
C47   H48    0.92897       .     S
H48   C47    0.92897       .     S
C50   H51    0.93011       .     S
H51   C50    0.93011       .     S
C11   N0     1.41028   1_655     S
N0    C11    1.41028   1_455     S
C21   N0     1.38363       .     S
N0    C21    1.38363       .     S
C13   N1     1.34988       .     S
N1    C13    1.34988       .     S
C44   N1     1.34078       .     S
N1    C44    1.34078       .     S
H3    N2     0.86054       .     S
N2    H3     0.86054       .     S
H4    N2     0.85954       .     S
N2    H4     0.85954       .     S
C13   N2     1.33939       .     S
N2    C13    1.33939       .     S
C44   N5     1.34505       .     S
N5    C44    1.34505       .     S
C49   N5     1.36383       .     S
N5    C49    1.36383       .     S
H7    N6     0.85972   1_545     S
N6    H7     0.85972   1_565     S
H8    N6     0.85995       .     S
N6    H8     0.85995       .     S
C38   N6     1.36307       .     S
N6    C38    1.36307       .     S
C22   N9     1.32698   1_455     S
N9    C22    1.32698   1_655     S
C38   N9     1.32996       .     S
N9    C38    1.32996       .     S
C13   N10    1.33895       .     S
N10   C13    1.33895       .     S
C49   N10    1.35620       .     S
N10   C49    1.35620       .     S
C19   C11    1.39220       .     S
C11   C19    1.39220       .     S
C42   C11    1.40044       .     S
C11   C42    1.40044       .     S
C22   C12    1.47815       .     S
C12   C22    1.47815       .     S
C30   C12    1.40567   1_655     S
C12   C30    1.40567   1_455     S
C38   N14    1.31161   1_655     S
N14   C38    1.31161   1_455     S
H16   C15    0.93049       .     S
C15   H16    0.93049       .     S
C39   C15    1.42345       .     S
C15   C39    1.42345       .     S
C40   C15    1.39150       .     S
C15   C40    1.39150       .     S
H18   C17    0.93019       .     S
C17   H18    0.93019       .     S
C19   C17    1.33825       .     S
C17   C19    1.33825       .     S
C32   C17    1.43581       .     S
C17   C32    1.43581       .     S
H20   C19    0.92899       .     S
C19   H20    0.92899       .     S
C47   C21    1.41824   1_655     S
C21   C47    1.41824   1_455     S
H24   C23    0.92930       .     S
C23   H24    0.92930       .     S
C25   C23    1.38460   1_455     S
C23   C25    1.38460   1_655     S
C47   C23    1.37264       .     S
C23   C47    1.37264       .     S
C26   C25    1.45183       .     S
C25   C26    1.45183       .     S
C28   C26    1.38327   1_655     S
C26   C28    1.38327   1_455     S
C40   C27    1.39358       .     S
C27   C40    1.39358       .     S
C45   C27    1.35658       .     S
C27   C45    1.35658       .     S
C49   C27    1.48597       .     S
C27   C49    1.48597       .     S
H29   C28    0.93000       .     S
C28   H29    0.93000       .     S
C30   C28    1.37237       .     S
C28   C30    1.37237       .     S
H31   C30    0.92968       .     S
C30   H31    0.92968       .     S
C36   C32    1.38858       .     S
C32   C36    1.38858       .     S
C39   C32    1.46239       .     S
C32   C39    1.46239       .     S
H34   N33    0.85923   1_565     S
N33   H34    0.85923   1_545     S
H35   N33    0.86032   1_565     S
N33   H35    0.86032   1_545     S
C44   N33    1.31260       .     S
N33   C44    1.31260       .     S
H37   C36    0.92946       .     S
C36   H37    0.92946       .     S
C42   C36    1.41781       .     S
C36   C42    1.41781       .     S
C50   C39    1.41858       .     S
C39   C50    1.41858       .     S
H41   C40    0.93075       .     S
C40   H41    0.93075       .     S
H43   C42    0.92933       .     S
C42   H43    0.92933       .     S
H46   C45    0.93141       .     S
C45   H46    0.93141       .     S
C50   C45    1.39202       .     S
C45   C50    1.39202       .     S
H48   C47    0.92897       .     S
C47   H48    0.92897       .     S
H51   C50    0.93011       .     S
C50   H51    0.93011       .     S
