data_I
_chemical_name_common  '/data/user2/wty/HOF/MOFDiff/mofdiff/data/test/296-pyca-higha'
_cell_length_a  8.15750
_cell_length_b 10.36710
_cell_length_c 11.09210
_cell_angle_alpha 74.29000
_cell_angle_beta  75.65500
_cell_angle_gamma 67.44200
_space_group_name_H-M_alt      'P 1'


loop_
_space_group_symop_operation_xyz
  'x, y, z' 

loop_
_atom_site_label
_atom_site_fract_x
_atom_site_fract_y
_atom_site_fract_z
_atom_site_type_symbol
Cl0    0.98054  0.08552  0.70248    Cl
Cl1    0.42193  0.70671  0.59165    Cl
O2      0.6562   0.2191   0.8782     O
O3      0.9902   0.3132  0.47755     O
O4      0.7501   0.5745  0.41783     O
O5      0.4263   0.4857  0.82408     O
C6      0.6865   0.3014   0.7673     C
C7      0.8276   0.2554   0.6781     C
C8      0.8604   0.3482   0.5573     C
C9      0.7246   0.4952   0.5309     C
C10     0.5828   0.5398   0.6197     C
C11     0.5531   0.4504   0.7419     C
H12      0.565    0.266    0.938     H
H13       0.84    0.536    0.365     H
O14     0.0228  0.50027  0.24198     O
N15     0.1365   0.5849   0.0401     N
C16     0.0917   0.7065   0.9367     C
C17     0.9378   0.8168   0.0011     C
C18     0.8633   0.7308    0.122     C
C19      0.014    0.593   0.1432     C
H20      0.217    0.522     0.03     H
H21      0.189    0.745    0.899     H
H22      0.052    0.683    0.873     H
H23      0.849    0.875    0.945     H
H24      0.982    0.886    0.019     H
H25      0.823    0.776    0.195     H
H26      0.763    0.713    0.111     H
H27      0.789    0.721    0.725     H
O28     0.5923   0.7019  0.93527     O
N29     0.7092   0.7863   0.7352     N
C30     0.6767   0.9133   0.6362     C
C31     0.5152   0.0189   0.6975     C
C32     0.4576   0.9454   0.8261     C
C33     0.5915    0.797   0.8398     C
H34      0.659    0.896    0.558     H
H35      0.778    0.949    0.608     H
H36      0.484    0.099    0.676     H
H37      0.408    0.033    0.646     H
H38      0.347     0.94    0.837     H
H39      0.446    0.983    0.894     H
O40     0.4077   0.2981  0.06473     O
N41     0.2908   0.2137   0.2648     N
C42     0.3233   0.0867   0.3638     C
C43     0.4848   0.9811   0.3025     C
C44     0.5424   0.0546   0.1739     C
C45     0.4085    0.203   0.1602     C
H46      0.211    0.279    0.275     H
H47      0.341    0.104    0.442     H
H48      0.222    0.051    0.392     H
H49      0.516    0.901    0.324     H
H50      0.592    0.967    0.354     H
H51      0.653     0.06    0.163     H
H52      0.554    0.017    0.106     H
H53      0.435    0.734    0.062     H
Cl54   0.01946  0.91448  0.29752    Cl
Cl55   0.57807  0.29329  0.40835    Cl
O56     0.3438   0.7809   0.1218     O
O57     0.0098   0.6868  0.52245     O
O58     0.2499   0.4255  0.58217     O
O59     0.5737   0.5143  0.17592     O
C60     0.3135   0.6986   0.2327     C
C61     0.1724   0.7446   0.3219     C
C62     0.1396   0.6518   0.4427     C
C63     0.2754   0.5048   0.4691     C
C64     0.4172   0.4602   0.3803     C
C65     0.4469   0.5496   0.2581     C
H66       0.16    0.464    0.635     H
O67     0.9772  0.49973  0.75802     O
N68     0.8635   0.4151   0.9599     N
C69     0.9083   0.2935   0.0633     C
C70     0.0622   0.1832   0.9989     C
C71     0.1367   0.2692    0.878     C
C72      0.986    0.407   0.8568     C
H73      0.783    0.478     0.97     H
H74      0.811    0.255    0.101     H
H75      0.948    0.317    0.127     H
H76      0.151    0.125    0.055     H
H77      0.018    0.114    0.981     H
H78      0.177    0.224    0.805     H
H79      0.237    0.287    0.889     H
loop_
_geom_bond_atom_site_label_1
_geom_bond_atom_site_label_2
_geom_bond_distance
_geom_bond_site_symmetry_2
_ccdc_geom_bond_type
H12   O5     2.28850       .     S
O5    H12    2.28850       .     S
H12   O40    1.66288   1_556     S
O40   H12    1.66288   1_554     S
H13   O3     2.32808       .     S
O3    H13    2.32808       .     S
H13   O14    1.75057   1_655     S
O14   H13    1.75057   1_455     S
H20   O5     2.51274   1_554     S
O5    H20    2.51274   1_556     S
H20   O40    2.23576       .     S
O40   H20    2.23576       .     S
H27   O57    2.52068   1_655     S
O57   H27    2.52068   1_455     S
H27   O67    2.20791       .     S
O67   H27    2.20791       .     S
H46   O3     2.52068   1_455     S
O3    H46    2.52068   1_655     S
H46   O14    2.20791       .     S
O14   H46    2.20791       .     S
H53   O28    1.66288   1_554     S
O28   H53    1.66288   1_556     S
H53   O59    2.28850       .     S
O59   H53    2.28850       .     S
H66   O57    2.32808       .     S
O57   H66    2.32808       .     S
H66   O67    1.75057   1_455     S
O67   H66    1.75057   1_655     S
H73   O28    2.23576       .     S
O28   H73    2.23576       .     S
H73   O59    2.51274   1_556     S
O59   H73    2.51274   1_554     S
Cl0   C7     1.71896       .     S
C7    Cl0    1.71896       .     S
Cl1   C10    1.72675       .     S
C10   Cl1    1.72675       .     S
O2    C6     1.32099       .     S
C6    O2     1.32099       .     S
O2    H12    0.93939       .     S
H12   O2     0.93939       .     S
O3    C8     1.20426       .     S
C8    O3     1.20426       .     S
O4    C9     1.31745       .     S
C9    O4     1.31745       .     S
O4    H13    0.85420       .     S
H13   O4     0.85420       .     S
O5    C11    1.20738       .     S
C11   O5     1.20738       .     S
C6    C7     1.34212       .     S
C7    C6     1.34212       .     S
C6    C11    1.50872       .     S
C11   C6     1.50872       .     S
C7    C8     1.45407       .     S
C8    C7     1.45407       .     S
C8    C9     1.50307       .     S
C9    C8     1.50307       .     S
C9    C10    1.33929       .     S
C10   C9     1.33929       .     S
C10   C11    1.44367       .     S
C11   C10    1.44367       .     S
O14   C19    1.24316       .     S
C19   O14    1.24316       .     S
N15   C16    1.45239   1_554     S
C16   N15    1.45239   1_556     S
N15   C19    1.31712       .     S
C19   N15    1.31712       .     S
N15   H20    0.73727       .     S
H20   N15    0.73727       .     S
C16   C17    1.51344   1_456     S
C17   C16    1.51344   1_654     S
C16   H21    0.97590       .     S
H21   C16    0.97590       .     S
C16   H22    0.96468       .     S
H22   C16    0.96468       .     S
C17   C18    1.52545       .     S
C18   C17    1.52545       .     S
C17   H23    0.98015   1_554     S
H23   C17    0.98015   1_556     S
C17   H24    0.99758       .     S
H24   C17    0.99758       .     S
C18   C19    1.49041   1_655     S
C19   C18    1.49041   1_455     S
C18   H25    0.96886       .     S
H25   C18    0.96886       .     S
C18   H26    0.94651       .     S
H26   C18    0.94651       .     S
H27   N29    0.74948       .     S
N29   H27    0.74948       .     S
O28   C33    1.23554       .     S
C33   O28    1.23554       .     S
N29   C30    1.45022       .     S
C30   N29    1.45022       .     S
N29   C33    1.31007       .     S
C33   N29    1.31007       .     S
C30   C31    1.49971   1_565     S
C31   C30    1.49971   1_545     S
C30   H34    0.98569       .     S
H34   C30    0.98569       .     S
C30   H35    0.98059       .     S
H35   C30    0.98059       .     S
C31   C32    1.47990   1_545     S
C32   C31    1.47990   1_565     S
C31   H36    0.75624       .     S
H36   C31    0.75624       .     S
C31   H37    1.10302       .     S
H37   C31    1.10302       .     S
C32   C33    1.49981       .     S
C33   C32    1.49981       .     S
C32   H38    0.90155       .     S
H38   C32    0.90155       .     S
C32   H39    0.90748       .     S
H39   C32    0.90748       .     S
O40   C45    1.23554       .     S
C45   O40    1.23554       .     S
N41   C42    1.45022       .     S
C42   N41    1.45022       .     S
N41   C45    1.31007       .     S
C45   N41    1.31007       .     S
N41   H46    0.74948       .     S
H46   N41    0.74948       .     S
C42   C43    1.49971   1_545     S
C43   C42    1.49971   1_565     S
C42   H47    0.98569       .     S
H47   C42    0.98569       .     S
C42   H48    0.98059       .     S
H48   C42    0.98059       .     S
C43   C44    1.47990   1_565     S
C44   C43    1.47990   1_545     S
C43   H49    0.75624       .     S
H49   C43    0.75624       .     S
C43   H50    1.10302       .     S
H50   C43    1.10302       .     S
C44   C45    1.49981       .     S
C45   C44    1.49981       .     S
C44   H51    0.90155       .     S
H51   C44    0.90155       .     S
C44   H52    0.90747       .     S
H52   C44    0.90747       .     S
H53   O56    0.93939       .     S
O56   H53    0.93939       .     S
Cl54  C61    1.71896       .     S
C61   Cl54   1.71896       .     S
Cl55  C64    1.72675       .     S
C64   Cl55   1.72675       .     S
O56   C60    1.32099       .     S
C60   O56    1.32099       .     S
O57   C62    1.20426       .     S
C62   O57    1.20426       .     S
O58   C63    1.31745       .     S
C63   O58    1.31745       .     S
O58   H66    0.85420       .     S
H66   O58    0.85420       .     S
O59   C65    1.20738       .     S
C65   O59    1.20738       .     S
C60   C61    1.34212       .     S
C61   C60    1.34212       .     S
C60   C65    1.50872       .     S
C65   C60    1.50872       .     S
C61   C62    1.45407       .     S
C62   C61    1.45407       .     S
C62   C63    1.50307       .     S
C63   C62    1.50307       .     S
C63   C64    1.33929       .     S
C64   C63    1.33929       .     S
C64   C65    1.44367       .     S
C65   C64    1.44367       .     S
O67   C72    1.24316       .     S
C72   O67    1.24316       .     S
N68   C69    1.45239   1_556     S
C69   N68    1.45239   1_554     S
N68   C72    1.31712       .     S
C72   N68    1.31712       .     S
N68   H73    0.73727       .     S
H73   N68    0.73727       .     S
C69   C70    1.51344   1_654     S
C70   C69    1.51344   1_456     S
C69   H74    0.97590       .     S
H74   C69    0.97590       .     S
C69   H75    0.96468       .     S
H75   C69    0.96468       .     S
C70   C71    1.52545       .     S
C71   C70    1.52545       .     S
C70   H76    0.98016   1_556     S
H76   C70    0.98016   1_554     S
C70   H77    0.99758       .     S
H77   C70    0.99758       .     S
C71   C72    1.49041   1_455     S
C72   C71    1.49041   1_655     S
C71   H78    0.96886       .     S
H78   C71    0.96886       .     S
C71   H79    0.94651       .     S
H79   C71    0.94651       .     S
O5    H12    2.28850       .     S
H12   O5     2.28850       .     S
O40   H12    1.66288   1_554     S
H12   O40    1.66288   1_556     S
O3    H13    2.32808       .     S
H13   O3     2.32808       .     S
O14   H13    1.75057   1_455     S
H13   O14    1.75057   1_655     S
O5    H20    2.51274   1_556     S
H20   O5     2.51274   1_554     S
O40   H20    2.23576       .     S
H20   O40    2.23576       .     S
O57   H27    2.52068   1_455     S
H27   O57    2.52068   1_655     S
O67   H27    2.20791       .     S
H27   O67    2.20791       .     S
O3    H46    2.52068   1_655     S
H46   O3     2.52068   1_455     S
O14   H46    2.20791       .     S
H46   O14    2.20791       .     S
O28   H53    1.66288   1_556     S
H53   O28    1.66288   1_554     S
O59   H53    2.28850       .     S
H53   O59    2.28850       .     S
O57   H66    2.32808       .     S
H66   O57    2.32808       .     S
O67   H66    1.75057   1_655     S
H66   O67    1.75057   1_455     S
O28   H73    2.23576       .     S
H73   O28    2.23576       .     S
O59   H73    2.51274   1_554     S
H73   O59    2.51274   1_556     S
C7    Cl0    1.71896       .     S
Cl0   C7     1.71896       .     S
C10   Cl1    1.72675       .     S
Cl1   C10    1.72675       .     S
C6    O2     1.32099       .     S
O2    C6     1.32099       .     S
H12   O2     0.93939       .     S
O2    H12    0.93939       .     S
C8    O3     1.20426       .     S
O3    C8     1.20426       .     S
C9    O4     1.31745       .     S
O4    C9     1.31745       .     S
H13   O4     0.85420       .     S
O4    H13    0.85420       .     S
C11   O5     1.20738       .     S
O5    C11    1.20738       .     S
C7    C6     1.34212       .     S
C6    C7     1.34212       .     S
C11   C6     1.50872       .     S
C6    C11    1.50872       .     S
C8    C7     1.45407       .     S
C7    C8     1.45407       .     S
C9    C8     1.50307       .     S
C8    C9     1.50307       .     S
C10   C9     1.33929       .     S
C9    C10    1.33929       .     S
C11   C10    1.44367       .     S
C10   C11    1.44367       .     S
C19   O14    1.24316       .     S
O14   C19    1.24316       .     S
C16   N15    1.45239   1_556     S
N15   C16    1.45239   1_554     S
C19   N15    1.31712       .     S
N15   C19    1.31712       .     S
H20   N15    0.73727       .     S
N15   H20    0.73727       .     S
C17   C16    1.51344   1_654     S
C16   C17    1.51344   1_456     S
H21   C16    0.97590       .     S
C16   H21    0.97590       .     S
H22   C16    0.96468       .     S
C16   H22    0.96468       .     S
C18   C17    1.52545       .     S
C17   C18    1.52545       .     S
H23   C17    0.98015   1_556     S
C17   H23    0.98015   1_554     S
H24   C17    0.99758       .     S
C17   H24    0.99758       .     S
C19   C18    1.49041   1_455     S
C18   C19    1.49041   1_655     S
H25   C18    0.96886       .     S
C18   H25    0.96886       .     S
H26   C18    0.94651       .     S
C18   H26    0.94651       .     S
N29   H27    0.74948       .     S
H27   N29    0.74948       .     S
C33   O28    1.23554       .     S
O28   C33    1.23554       .     S
C30   N29    1.45022       .     S
N29   C30    1.45022       .     S
C33   N29    1.31007       .     S
N29   C33    1.31007       .     S
C31   C30    1.49971   1_545     S
C30   C31    1.49971   1_565     S
H34   C30    0.98569       .     S
C30   H34    0.98569       .     S
H35   C30    0.98059       .     S
C30   H35    0.98059       .     S
C32   C31    1.47990   1_565     S
C31   C32    1.47990   1_545     S
H36   C31    0.75624       .     S
C31   H36    0.75624       .     S
H37   C31    1.10302       .     S
C31   H37    1.10302       .     S
C33   C32    1.49981       .     S
C32   C33    1.49981       .     S
H38   C32    0.90155       .     S
C32   H38    0.90155       .     S
H39   C32    0.90748       .     S
C32   H39    0.90748       .     S
C45   O40    1.23554       .     S
O40   C45    1.23554       .     S
C42   N41    1.45022       .     S
N41   C42    1.45022       .     S
C45   N41    1.31007       .     S
N41   C45    1.31007       .     S
H46   N41    0.74948       .     S
N41   H46    0.74948       .     S
C43   C42    1.49971   1_565     S
C42   C43    1.49971   1_545     S
H47   C42    0.98569       .     S
C42   H47    0.98569       .     S
H48   C42    0.98059       .     S
C42   H48    0.98059       .     S
C44   C43    1.47990   1_545     S
C43   C44    1.47990   1_565     S
H49   C43    0.75624       .     S
C43   H49    0.75624       .     S
H50   C43    1.10302       .     S
C43   H50    1.10302       .     S
C45   C44    1.49981       .     S
C44   C45    1.49981       .     S
H51   C44    0.90155       .     S
C44   H51    0.90155       .     S
H52   C44    0.90747       .     S
C44   H52    0.90747       .     S
O56   H53    0.93939       .     S
H53   O56    0.93939       .     S
C61   Cl54   1.71896       .     S
Cl54  C61    1.71896       .     S
C64   Cl55   1.72675       .     S
Cl55  C64    1.72675       .     S
C60   O56    1.32099       .     S
O56   C60    1.32099       .     S
C62   O57    1.20426       .     S
O57   C62    1.20426       .     S
C63   O58    1.31745       .     S
O58   C63    1.31745       .     S
H66   O58    0.85420       .     S
O58   H66    0.85420       .     S
C65   O59    1.20738       .     S
O59   C65    1.20738       .     S
C61   C60    1.34212       .     S
C60   C61    1.34212       .     S
C65   C60    1.50872       .     S
C60   C65    1.50872       .     S
C62   C61    1.45407       .     S
C61   C62    1.45407       .     S
C63   C62    1.50307       .     S
C62   C63    1.50307       .     S
C64   C63    1.33929       .     S
C63   C64    1.33929       .     S
C65   C64    1.44367       .     S
C64   C65    1.44367       .     S
C72   O67    1.24316       .     S
O67   C72    1.24316       .     S
C69   N68    1.45239   1_554     S
N68   C69    1.45239   1_556     S
C72   N68    1.31712       .     S
N68   C72    1.31712       .     S
H73   N68    0.73727       .     S
N68   H73    0.73727       .     S
C70   C69    1.51344   1_456     S
C69   C70    1.51344   1_654     S
H74   C69    0.97590       .     S
C69   H74    0.97590       .     S
H75   C69    0.96468       .     S
C69   H75    0.96468       .     S
C71   C70    1.52545       .     S
C70   C71    1.52545       .     S
H76   C70    0.98016   1_554     S
C70   H76    0.98016   1_556     S
H77   C70    0.99758       .     S
C70   H77    0.99758       .     S
C72   C71    1.49041   1_655     S
C71   C72    1.49041   1_455     S
H78   C71    0.96886       .     S
C71   H78    0.96886       .     S
H79   C71    0.94651       .     S
C71   H79    0.94651       .     S
