data_I
_chemical_name_common  '/data/user2/wty/HOF/MOFDiff/mofdiff/data/test/297_sof-10'
_cell_length_a 13.60110
_cell_length_b 20.32710
_cell_length_c 23.80920
_cell_angle_alpha 90.00000
_cell_angle_beta  90.00000
_cell_angle_gamma 90.00000
_space_group_name_H-M_alt      'P 1'


loop_
_space_group_symop_operation_xyz
  'x, y, z' 

loop_
_atom_site_label
_atom_site_fract_x
_atom_site_fract_y
_atom_site_fract_z
_atom_site_type_symbol
O0      0.2122  0.66323  0.07979     O
H1      0.1979   0.6952    0.059     H
O2      0.2266  0.60824  0.99956     O
O3       0.146  0.36647  0.00668     O
O4      0.1217  0.32105  0.09113     O
H5      0.1051   0.2872   0.0732     H
O6      0.2232  0.39522  0.25851     O
O7       0.183  0.53109  0.34386     O
O8      0.3448  0.61227   0.5011     O
H9       0.345   0.6476   0.5194     H
O10     0.3319  0.56666  0.58603     O
O11     0.3089    0.321  0.59742     O
O12     0.3101  0.26604  0.51604     O
H13     0.3255    0.234   0.5365     H
N14     0.2428  0.42902   0.3658     N
H15     0.2516   0.3897   0.3511     H
N16     0.1864  0.49973  0.23326     N
H17     0.1704   0.5383   0.2474     H
C18      0.305  0.31932  0.54645     C
C19     0.3282  0.56303  0.53524     C
C20     0.2956  0.38121  0.51174     C
C21      0.311   0.4419  0.53732     C
H22     0.3253   0.4441   0.5763     H
C23     0.3056  0.49868   0.5061     C
C24     0.2819  0.49713    0.449     C
H25     0.2778   0.5365   0.4277     H
C26     0.2646   0.4363  0.42434     C
C27     0.2738  0.37845  0.45535     C
H28      0.265   0.3371   0.4375     H
C29     0.2104  0.47613  0.33135     C
C30     0.2076  0.45256  0.26961     C
C31     0.1658  0.43264  0.08816     C
C32     0.1684   0.4353  0.14659     C
H33     0.1575   0.3964   0.1678     H
C34     0.1868  0.49444  0.17418     C
C35     0.2015  0.55165  0.14277     C
H36     0.2125   0.5924   0.1613     H
C37     0.1999   0.5491  0.08403     C
C38     0.1824  0.48976  0.05728     C
H39     0.1816    0.488   0.0174     H
C40     0.1447  0.37033  0.05787     C
C41     0.2156  0.60981  0.04998     C
N42     0.0724  0.28716  0.53791     N
N43     0.1798  0.73174  0.51825     N
N44     0.0431  0.51347  0.46721     N
N45     0.8298  0.36396   0.3686     N
N46     0.9306   0.6952  0.35735     N
N47     0.6089  0.38556  0.23406     N
N48     0.6299  0.72525  0.23536     N
N49     0.3622  0.33508  0.07177     N
N50     0.4568  0.56006  0.13025     N
N51     0.3972  0.78509  0.06022     N
C52     0.0585    0.344   0.5638     C
H53     0.0664   0.3456   0.6034     H
C54     0.0332  0.40062  0.53613     C
H55     0.0253   0.4407   0.5561     H
C56     0.0194  0.39837  0.47855     C
C57     0.0337  0.33926  0.45087     C
H58     0.0246    0.336   0.4114     H
C59     0.0617  0.28468  0.48227     C
H60     0.0735   0.2442   0.4634     H
C61     0.1782  0.72768  0.46385     C
H62     0.2096   0.7611   0.4425     H
C63     0.1316  0.67577  0.43543     C
H64     0.1308   0.6742   0.3956     H
C65     0.0871  0.62693   0.4669     C
C66     0.0933  0.63135  0.52577     C
H67     0.0649   0.5983   0.5489     H
C68     0.1408    0.684  0.54926     C
H69     0.1461   0.6865    0.589     H
C70     0.9955  0.46108  0.44828     C
C71      0.926  0.46593  0.40463     C
C72     0.9062  0.52658  0.38055     C
C73     0.9618  0.58033  0.39927     C
C74     0.0296  0.57196  0.44293     C
C75     0.8708  0.40896  0.38565     C
C76     0.9439   0.6442  0.37563     C
C77     0.8285  0.53581   0.3376     C
C78     0.7469   0.5711  0.34988     C
H79     0.7402   0.5907   0.3859     H
C80     0.6716   0.5789   0.3097     C
H81     0.6147   0.6033   0.3195     H
C82     0.6779  0.55297  0.25811     C
C83     0.7697  0.52034  0.24159     C
C84     0.7853   0.4964  0.18586     C
H85     0.7367    0.503   0.1578     H
C86     0.8705    0.464  0.17301     C
H87     0.8811   0.4488   0.1358     H
C88     0.9413   0.4532  0.21356     C
H89     0.9986   0.4287   0.2042     H
C90     0.9304    0.477  0.26679     C
H91     0.9811   0.4708   0.2937     H
C92     0.8439  0.51089  0.28177     C
C93     0.4828  0.50289  0.15268     C
C94     0.5522  0.49866    0.196     C
C95     0.5956  0.55637  0.21692     C
C96     0.5616  0.61598  0.19503     C
C97     0.4923  0.61586  0.15106     C
C98     0.5848  0.43575  0.21691     C
C99     0.6004  0.67737  0.21701     C
C100    0.4268  0.73018  0.03382     C
H101     0.427   0.7294   0.9939     H
C102    0.4565  0.67583  0.06218     C
H103    0.4756   0.6375   0.0422     H
C104    0.4589  0.67631  0.12142     C
C105    0.4292  0.73291  0.14778     C
H106    0.4307   0.7358   0.1876     H
C107    0.3967  0.78624  0.11592     C
H108    0.3735   0.8245   0.1347     H
C109    0.3659  0.33703  0.12789     C
H110    0.3416   0.3005   0.1486     H
C111    0.4042  0.39049  0.15717     C
H112    0.4067   0.3905    0.197     H
C113    0.4386  0.44397  0.12633     C
C114    0.4317  0.44181  0.06799     C
H115    0.4528   0.4782   0.0461     H
C116    0.3942  0.38672  0.04222     C
H117     0.391   0.3853   0.0024     H
loop_
_geom_bond_atom_site_label_1
_geom_bond_atom_site_label_2
_geom_bond_distance
_geom_bond_site_symmetry_2
_ccdc_geom_bond_type
H15   O6     2.24089       .     S
O6    H15    2.24089       .     S
H17   O7     2.30768       .     S
O7    H17    2.30768       .     S
O0    H1     0.83974       .     S
H1    O0     0.83974       .     S
O0    C41    1.29808       .     S
C41   O0     1.29808       .     S
O2    C41    1.21017   1_556     S
C41   O2     1.21017   1_554     S
O3    C40    1.22144       .     S
C40   O3     1.22144       .     S
O4    H5     0.84063       .     S
H5    O4     0.84063       .     S
O4    C40    1.31469       .     S
C40   O4     1.31469       .     S
O6    C30    1.21383       .     S
C30   O6     1.21383       .     S
O7    C29    1.21478       .     S
C29   O7     1.21478       .     S
O8    H9     0.84000       .     S
H9    O8     0.84000       .     S
O8    C19    1.30901       .     S
C19   O8     1.30901       .     S
O10   C19    1.21256       .     S
C19   O10    1.21256       .     S
O11   C18    1.21519       .     S
C18   O11    1.21519       .     S
O12   H13    0.83984       .     S
H13   O12    0.83984       .     S
O12   C18    1.30460       .     S
C18   O12    1.30460       .     S
N14   H15    0.88071       .     S
H15   N14    0.88071       .     S
N14   C26    1.43264       .     S
C26   N14    1.43264       .     S
N14   C29    1.33566       .     S
C29   N14    1.33566       .     S
N16   H17    0.88056       .     S
H17   N16    0.88056       .     S
N16   C30    1.32345       .     S
C30   N16    1.32345       .     S
N16   C34    1.41076       .     S
C34   N16    1.41076       .     S
C18   C20    1.51062       .     S
C20   C18    1.51062       .     S
C19   C23    1.51223       .     S
C23   C19    1.51223       .     S
C20   C21    1.39165       .     S
C21   C20    1.39165       .     S
C20   C27    1.37610       .     S
C27   C20    1.37610       .     S
C21   H22    0.94930       .     S
H22   C21    0.94930       .     S
C21   C23    1.37479       .     S
C23   C21    1.37479       .     S
C23   C24    1.39755       .     S
C24   C23    1.39755       .     S
C24   H25    0.94907       .     S
H25   C24    0.94907       .     S
C24   C26    1.38889       .     S
C26   C24    1.38889       .     S
C26   C27    1.39412       .     S
C27   C26    1.39412       .     S
C27   H28    0.94944       .     S
H28   C27    0.94944       .     S
C29   C30    1.54656       .     S
C30   C29    1.54656       .     S
C31   C32    1.39267       .     S
C32   C31    1.39267       .     S
C31   C38    1.39271       .     S
C38   C31    1.39271       .     S
C31   C40    1.48549       .     S
C40   C31    1.48549       .     S
C32   H33    0.94986       .     S
H33   C32    0.94986       .     S
C32   C34    1.39259       .     S
C34   C32    1.39259       .     S
C34   C35    1.39700       .     S
C35   C34    1.39700       .     S
C35   H36    0.95035       .     S
H36   C35    0.95035       .     S
C35   C37    1.39968       .     S
C37   C35    1.39968       .     S
C37   C38    1.38464       .     S
C38   C37    1.38464       .     S
C37   C41    1.49189       .     S
C41   C37    1.49189       .     S
C38   H39    0.95025       .     S
H39   C38    0.95025       .     S
N42   C52    1.32312       .     S
C52   N42    1.32312       .     S
N42   C59    1.33367       .     S
C59   N42    1.33367       .     S
N43   C61    1.29803       .     S
C61   N43    1.29803       .     S
N43   C68    1.32974       .     S
C68   N43    1.32974       .     S
N44   C70    1.32528   1_455     S
C70   N44    1.32528   1_655     S
N44   C74    1.33471       .     S
C74   N44    1.33471       .     S
N45   C75    1.14563       .     S
C75   N45    1.14563       .     S
N46   C76    1.13880       .     S
C76   N46    1.13880       .     S
N47   C98    1.14674       .     S
C98   N47    1.14674       .     S
N48   C99    1.13978       .     S
C99   N48    1.13978       .     S
N49   C109   1.33771       .     S
C109  N49    1.33771       .     S
N49   C116   1.33652       .     S
C116  N49    1.33652       .     S
N50   C93    1.32693       .     S
C93   N50    1.32693       .     S
N50   C97    1.32859       .     S
C97   N50    1.32859       .     S
N51   C100   1.34275       .     S
C100  N51    1.34275       .     S
N51   C107   1.32640       .     S
C107  N51    1.32640       .     S
C52   H53    0.94951       .     S
H53   C52    0.94951       .     S
C52   C54    1.37005       .     S
C54   C52    1.37005       .     S
C54   H55    0.94940       .     S
H55   C54    0.94940       .     S
C54   C56    1.38448       .     S
C56   C54    1.38448       .     S
C56   C57    1.38414       .     S
C57   C56    1.38414       .     S
C56   C70    1.49999   1_455     S
C70   C56    1.49999   1_655     S
C57   H58    0.95018       .     S
H58   C57    0.95018       .     S
C57   C59    1.39098       .     S
C59   C57    1.39098       .     S
C59   H60    0.95115       .     S
H60   C59    0.95115       .     S
C61   H62    0.94988       .     S
H62   C61    0.94988       .     S
C61   C63    1.40463       .     S
C63   C61    1.40463       .     S
C63   H64    0.94892       .     S
H64   C63    0.94892       .     S
C63   C65    1.38324       .     S
C65   C63    1.38324       .     S
C65   C66    1.40705       .     S
C66   C65    1.40705       .     S
C65   C74    1.47847       .     S
C74   C65    1.47847       .     S
C66   H67    0.95069       .     S
H67   C66    0.95069       .     S
C66   C68    1.36951       .     S
C68   C66    1.36951       .     S
C68   H69    0.95028       .     S
H69   C68    0.95028       .     S
C70   C71    1.40832       .     S
C71   C70    1.40832       .     S
C71   C72    1.38604       .     S
C72   C71    1.38604       .     S
C71   C75    1.45222       .     S
C75   C71    1.45222       .     S
C72   C73    1.40152       .     S
C73   C72    1.40152       .     S
C72   C77    1.48248       .     S
C77   C72    1.48248       .     S
C73   C74    1.39996   1_655     S
C74   C73    1.39996   1_455     S
C73   C76    1.43584       .     S
C76   C73    1.43584       .     S
C77   C78    1.35345       .     S
C78   C77    1.35345       .     S
C77   C92    1.43785       .     S
C92   C77    1.43785       .     S
C78   H79    0.95001       .     S
H79   C78    0.95001       .     S
C78   C80    1.41040       .     S
C80   C78    1.41040       .     S
C80   H81    0.94835       .     S
H81   C80    0.94835       .     S
C80   C82    1.33937       .     S
C82   C80    1.33937       .     S
C82   C83    1.46751       .     S
C83   C82    1.46751       .     S
C82   C95    1.48981       .     S
C95   C82    1.48981       .     S
C83   C84    1.42915       .     S
C84   C83    1.42915       .     S
C83   C92    1.40377       .     S
C92   C83    1.40377       .     S
C84   H85    0.94936       .     S
H85   C84    0.94936       .     S
C84   C86    1.36755       .     S
C86   C84    1.36755       .     S
C86   H87    0.94928       .     S
H87   C86    0.94928       .     S
C86   C88    1.38116       .     S
C88   C86    1.38116       .     S
C88   H89    0.95135       .     S
H89   C88    0.95135       .     S
C88   C90    1.36464       .     S
C90   C88    1.36464       .     S
C90   H91    0.94969       .     S
H91   C90    0.94969       .     S
C90   C92    1.40922       .     S
C92   C90    1.40922       .     S
C93   C94    1.40078       .     S
C94   C93    1.40078       .     S
C93   C113   1.47967       .     S
C113  C93    1.47967       .     S
C94   C95    1.40451       .     S
C95   C94    1.40451       .     S
C94   C98    1.44213       .     S
C98   C94    1.44213       .     S
C95   C96    1.39775       .     S
C96   C95    1.39775       .     S
C96   C97    1.40869       .     S
C97   C96    1.40869       .     S
C96   C99    1.45244       .     S
C99   C96    1.45244       .     S
C97   C104   1.48804       .     S
C104  C97    1.48804       .     S
C100  H101   0.95060   1_554     S
H101  C100   0.95060   1_556     S
C100  C102   1.35634       .     S
C102  C100   1.35634       .     S
C102  H103   0.94913       .     S
H103  C102   0.94913       .     S
C102  C104   1.41087       .     S
C104  C102   1.41087       .     S
C104  C105   1.37141       .     S
C105  C104   1.37141       .     S
C105  H106   0.95012       .     S
H106  C105   0.95012       .     S
C105  C107   1.39498       .     S
C107  C105   1.39498       .     S
C107  H108   0.95097       .     S
H108  C107   0.95097       .     S
C109  H110   0.95066       .     S
H110  C109   0.95066       .     S
C109  C111   1.39221       .     S
C111  C109   1.39221       .     S
C111  H112   0.94893       .     S
H112  C111   0.94893       .     S
C111  C113   1.39278       .     S
C113  C111   1.39278       .     S
C113  C114   1.39289       .     S
C114  C113   1.39289       .     S
C114  H115   0.94929       .     S
H115  C114   0.94929       .     S
C114  C116   1.37499       .     S
C116  C114   1.37499       .     S
C116  H117   0.94952       .     S
H117  C116   0.94952       .     S
O6    H15    2.24089       .     S
H15   O6     2.24089       .     S
O7    H17    2.30768       .     S
H17   O7     2.30768       .     S
H1    O0     0.83974       .     S
O0    H1     0.83974       .     S
C41   O0     1.29808       .     S
O0    C41    1.29808       .     S
C41   O2     1.21017   1_554     S
O2    C41    1.21017   1_556     S
C40   O3     1.22144       .     S
O3    C40    1.22144       .     S
H5    O4     0.84063       .     S
O4    H5     0.84063       .     S
C40   O4     1.31469       .     S
O4    C40    1.31469       .     S
C30   O6     1.21383       .     S
O6    C30    1.21383       .     S
C29   O7     1.21478       .     S
O7    C29    1.21478       .     S
H9    O8     0.84000       .     S
O8    H9     0.84000       .     S
C19   O8     1.30901       .     S
O8    C19    1.30901       .     S
C19   O10    1.21256       .     S
O10   C19    1.21256       .     S
C18   O11    1.21519       .     S
O11   C18    1.21519       .     S
H13   O12    0.83984       .     S
O12   H13    0.83984       .     S
C18   O12    1.30460       .     S
O12   C18    1.30460       .     S
H15   N14    0.88071       .     S
N14   H15    0.88071       .     S
C26   N14    1.43264       .     S
N14   C26    1.43264       .     S
C29   N14    1.33566       .     S
N14   C29    1.33566       .     S
H17   N16    0.88056       .     S
N16   H17    0.88056       .     S
C30   N16    1.32345       .     S
N16   C30    1.32345       .     S
C34   N16    1.41076       .     S
N16   C34    1.41076       .     S
C20   C18    1.51062       .     S
C18   C20    1.51062       .     S
C23   C19    1.51223       .     S
C19   C23    1.51223       .     S
C21   C20    1.39165       .     S
C20   C21    1.39165       .     S
C27   C20    1.37610       .     S
C20   C27    1.37610       .     S
H22   C21    0.94930       .     S
C21   H22    0.94930       .     S
C23   C21    1.37479       .     S
C21   C23    1.37479       .     S
C24   C23    1.39755       .     S
C23   C24    1.39755       .     S
H25   C24    0.94907       .     S
C24   H25    0.94907       .     S
C26   C24    1.38889       .     S
C24   C26    1.38889       .     S
C27   C26    1.39412       .     S
C26   C27    1.39412       .     S
H28   C27    0.94944       .     S
C27   H28    0.94944       .     S
C30   C29    1.54656       .     S
C29   C30    1.54656       .     S
C32   C31    1.39267       .     S
C31   C32    1.39267       .     S
C38   C31    1.39271       .     S
C31   C38    1.39271       .     S
C40   C31    1.48549       .     S
C31   C40    1.48549       .     S
H33   C32    0.94986       .     S
C32   H33    0.94986       .     S
C34   C32    1.39259       .     S
C32   C34    1.39259       .     S
C35   C34    1.39700       .     S
C34   C35    1.39700       .     S
H36   C35    0.95035       .     S
C35   H36    0.95035       .     S
C37   C35    1.39968       .     S
C35   C37    1.39968       .     S
C38   C37    1.38464       .     S
C37   C38    1.38464       .     S
C41   C37    1.49189       .     S
C37   C41    1.49189       .     S
H39   C38    0.95025       .     S
C38   H39    0.95025       .     S
C52   N42    1.32312       .     S
N42   C52    1.32312       .     S
C59   N42    1.33367       .     S
N42   C59    1.33367       .     S
C61   N43    1.29803       .     S
N43   C61    1.29803       .     S
C68   N43    1.32974       .     S
N43   C68    1.32974       .     S
C70   N44    1.32528   1_655     S
N44   C70    1.32528   1_455     S
C74   N44    1.33471       .     S
N44   C74    1.33471       .     S
C75   N45    1.14563       .     S
N45   C75    1.14563       .     S
C76   N46    1.13880       .     S
N46   C76    1.13880       .     S
C98   N47    1.14674       .     S
N47   C98    1.14674       .     S
C99   N48    1.13978       .     S
N48   C99    1.13978       .     S
C109  N49    1.33771       .     S
N49   C109   1.33771       .     S
C116  N49    1.33652       .     S
N49   C116   1.33652       .     S
C93   N50    1.32693       .     S
N50   C93    1.32693       .     S
C97   N50    1.32859       .     S
N50   C97    1.32859       .     S
C100  N51    1.34275       .     S
N51   C100   1.34275       .     S
C107  N51    1.32640       .     S
N51   C107   1.32640       .     S
H53   C52    0.94951       .     S
C52   H53    0.94951       .     S
C54   C52    1.37005       .     S
C52   C54    1.37005       .     S
H55   C54    0.94940       .     S
C54   H55    0.94940       .     S
C56   C54    1.38448       .     S
C54   C56    1.38448       .     S
C57   C56    1.38414       .     S
C56   C57    1.38414       .     S
C70   C56    1.49999   1_655     S
C56   C70    1.49999   1_455     S
H58   C57    0.95018       .     S
C57   H58    0.95018       .     S
C59   C57    1.39098       .     S
C57   C59    1.39098       .     S
H60   C59    0.95115       .     S
C59   H60    0.95115       .     S
H62   C61    0.94988       .     S
C61   H62    0.94988       .     S
C63   C61    1.40463       .     S
C61   C63    1.40463       .     S
H64   C63    0.94892       .     S
C63   H64    0.94892       .     S
C65   C63    1.38324       .     S
C63   C65    1.38324       .     S
C66   C65    1.40705       .     S
C65   C66    1.40705       .     S
C74   C65    1.47847       .     S
C65   C74    1.47847       .     S
H67   C66    0.95069       .     S
C66   H67    0.95069       .     S
C68   C66    1.36951       .     S
C66   C68    1.36951       .     S
H69   C68    0.95028       .     S
C68   H69    0.95028       .     S
C71   C70    1.40832       .     S
C70   C71    1.40832       .     S
C72   C71    1.38604       .     S
C71   C72    1.38604       .     S
C75   C71    1.45222       .     S
C71   C75    1.45222       .     S
C73   C72    1.40152       .     S
C72   C73    1.40152       .     S
C77   C72    1.48248       .     S
C72   C77    1.48248       .     S
C74   C73    1.39996   1_455     S
C73   C74    1.39996   1_655     S
C76   C73    1.43584       .     S
C73   C76    1.43584       .     S
C78   C77    1.35345       .     S
C77   C78    1.35345       .     S
C92   C77    1.43785       .     S
C77   C92    1.43785       .     S
H79   C78    0.95001       .     S
C78   H79    0.95001       .     S
C80   C78    1.41040       .     S
C78   C80    1.41040       .     S
H81   C80    0.94835       .     S
C80   H81    0.94835       .     S
C82   C80    1.33937       .     S
C80   C82    1.33937       .     S
C83   C82    1.46751       .     S
C82   C83    1.46751       .     S
C95   C82    1.48981       .     S
C82   C95    1.48981       .     S
C84   C83    1.42915       .     S
C83   C84    1.42915       .     S
C92   C83    1.40377       .     S
C83   C92    1.40377       .     S
H85   C84    0.94936       .     S
C84   H85    0.94936       .     S
C86   C84    1.36755       .     S
C84   C86    1.36755       .     S
H87   C86    0.94928       .     S
C86   H87    0.94928       .     S
C88   C86    1.38116       .     S
C86   C88    1.38116       .     S
H89   C88    0.95135       .     S
C88   H89    0.95135       .     S
C90   C88    1.36464       .     S
C88   C90    1.36464       .     S
H91   C90    0.94969       .     S
C90   H91    0.94969       .     S
C92   C90    1.40922       .     S
C90   C92    1.40922       .     S
C94   C93    1.40078       .     S
C93   C94    1.40078       .     S
C113  C93    1.47967       .     S
C93   C113   1.47967       .     S
C95   C94    1.40451       .     S
C94   C95    1.40451       .     S
C98   C94    1.44213       .     S
C94   C98    1.44213       .     S
C96   C95    1.39775       .     S
C95   C96    1.39775       .     S
C97   C96    1.40869       .     S
C96   C97    1.40869       .     S
C99   C96    1.45244       .     S
C96   C99    1.45244       .     S
C104  C97    1.48804       .     S
C97   C104   1.48804       .     S
H101  C100   0.95060   1_556     S
C100  H101   0.95060   1_554     S
C102  C100   1.35634       .     S
C100  C102   1.35634       .     S
H103  C102   0.94913       .     S
C102  H103   0.94913       .     S
C104  C102   1.41087       .     S
C102  C104   1.41087       .     S
C105  C104   1.37141       .     S
C104  C105   1.37141       .     S
H106  C105   0.95012       .     S
C105  H106   0.95012       .     S
C107  C105   1.39498       .     S
C105  C107   1.39498       .     S
H108  C107   0.95097       .     S
C107  H108   0.95097       .     S
H110  C109   0.95066       .     S
C109  H110   0.95066       .     S
C111  C109   1.39221       .     S
C109  C111   1.39221       .     S
H112  C111   0.94893       .     S
C111  H112   0.94893       .     S
C113  C111   1.39278       .     S
C111  C113   1.39278       .     S
C114  C113   1.39289       .     S
C113  C114   1.39289       .     S
H115  C114   0.94929       .     S
C114  H115   0.94929       .     S
C116  C114   1.37499       .     S
C114  C116   1.37499       .     S
H117  C116   0.94952       .     S
C116  H117   0.94952       .     S
