data_I
_chemical_name_common  '/data/user2/wty/HOF/MOFDiff/mofdiff/data/test/297_sof-8'
_cell_length_a  8.35600
_cell_length_b 31.43880
_cell_length_c 15.26740
_cell_angle_alpha 90.00000
_cell_angle_beta  99.36500
_cell_angle_gamma 90.00000
_space_group_name_H-M_alt      'P 1'


loop_
_space_group_symop_operation_xyz
  'x, y, z' 

loop_
_atom_site_label
_atom_site_fract_x
_atom_site_fract_y
_atom_site_fract_z
_atom_site_type_symbol
O0      0.8617  0.52836  0.37172     O
H1      0.8162   0.5181   0.4105     H
O2      0.1473   0.5266  0.12065     O
H3      0.2019    0.516   0.0862     H
O4      0.8092  0.58901  0.43519     O
O5      0.1906   0.5861  0.04981     O
C6      0.0031  0.56881  0.24424     C
H7       0.002   0.5392   0.2446     H
C8      0.9401  0.59141  0.30915     C
C9      0.0679  0.59056  0.17871     C
C10     0.9436  0.63562   0.3085     C
H11     0.9037   0.6506   0.3528     H
C12     0.9917  0.72801   0.1641     C
H13     0.9813   0.7136   0.1103     H
C14      0.006  0.65787  0.24229     C
C15     0.0666  0.63469  0.17838     C
H16     0.1078   0.6491   0.1337     H
C17     0.0209  0.72789   0.3201     C
H18     0.0307   0.7133   0.3737     H
C19     0.8647  0.56961  0.37921     C
C20     0.1412  0.56742   0.1098     C
C21     0.0065  0.70505    0.241     C
N22     0.4949   0.5687  0.25455     N
C23     0.4442   0.5896  0.32138     C
N24     0.7159   0.5131  0.99377     N
C25     0.4152  0.72714   0.1859     C
C26     0.5888  0.72728   0.3346     C
N27     0.2756  0.51116  0.51332     N
C28     0.5463  0.59027   0.1887     C
C29     0.3169  0.52351  0.36523     C
H30     0.3065   0.5143   0.3067     H
C31     0.4996  0.70533   0.2583     C
C32     0.6702  0.52384  0.14217     C
H33      0.678   0.5136   0.1999     H
C34     0.6001   0.5636  0.11885     C
C35     0.3902   0.5624  0.39049     C
C36      0.553  0.63504  0.18982     C
C37     0.4381  0.63431  0.32332     C
C38      0.498  0.65794   0.2577     C
N39     0.3069  0.67324   0.4418     N
N40     0.6843  0.67535    0.072     N
C41     0.5829  0.57596  0.03073     C
H42     0.5318   0.6015   0.0124     H
C43     0.4113  0.57335  0.47895     C
H44     0.4647   0.5984   0.4983     H
C45     0.7274  0.50011   0.0775     C
H46     0.7759    0.474   0.0933     H
C47     0.2604    0.499   0.4281     C
H48     0.2101   0.4732   0.4112     H
C49     0.3659    0.656   0.3901     C
C50     0.6262  0.65774   0.1233     C
C51     0.6421   0.5501   0.9704     C
H52     0.6303   0.5587   0.9114     H
C53     0.6811  0.70577   0.4157     C
H54     0.6784   0.6762   0.4189     H
C55      0.353  0.54707   0.5386     C
H56     0.3683   0.5547   0.5982     H
C57       0.77  0.72802   0.4857     C
H58     0.8298   0.7133   0.5328     H
C59     0.3302  0.70521   0.0852     C
H60     0.3417    0.676   0.0791     H
C61     0.2462  0.72693   0.0123     C
H62     0.1907    0.712   0.9642     H
loop_
_geom_bond_atom_site_label_1
_geom_bond_atom_site_label_2
_geom_bond_distance
_geom_bond_site_symmetry_2
_ccdc_geom_bond_type
O0    H1     0.82000       .     S
H1    O0     0.82000       .     S
O0    C19    1.30177       .     S
C19   O0     1.30177       .     S
O2    H3     0.82094       .     S
H3    O2     0.82094       .     S
O2    C20    1.29392       .     S
C20   O2     1.29392       .     S
O4    C19    1.20271       .     S
C19   O4     1.20271       .     S
O5    C20    1.21539       .     S
C20   O5     1.21539       .     S
C6    H7     0.93097       .     S
H7    C6     0.93097       .     S
C6    C8     1.39062   1_455     S
C8    C6     1.39062   1_655     S
C6    C9     1.39213       .     S
C9    C6     1.39213       .     S
C8    C10    1.39029       .     S
C10   C8     1.39029       .     S
C8    C19    1.49336       .     S
C19   C8     1.49336       .     S
C9    C15    1.38744       .     S
C15   C9     1.38744       .     S
C9    C20    1.49029       .     S
C20   C9     1.49029       .     S
C10   H11    0.92940       .     S
H11   C10    0.92940       .     S
C10   C14    1.39805   1_655     S
C14   C10    1.39805   1_455     S
C12   H13    0.92964       .     S
H13   C12    0.92964       .     S
C12   C21    1.36657   1_655     S
C21   C12    1.36657   1_455     S
C14   C15    1.37854       .     S
C15   C14    1.37854       .     S
C14   C21    1.48343       .     S
C21   C14    1.48343       .     S
C15   H16    0.93033       .     S
H16   C15    0.93033       .     S
C17   H18    0.93003       .     S
H18   C17    0.93003       .     S
C17   C21    1.39328       .     S
C21   C17    1.39328       .     S
N22   C23    1.33901       .     S
C23   N22    1.33901       .     S
N22   C28    1.34000       .     S
C28   N22    1.34000       .     S
C23   C35    1.48429       .     S
C35   C23    1.48429       .     S
C23   C37    1.40704       .     S
C37   C23    1.40704       .     S
N24   C45    1.33049   1_556     S
C45   N24    1.33049   1_554     S
N24   C51    1.33757       .     S
C51   N24    1.33757       .     S
C25   C31    1.39128       .     S
C31   C25    1.39128       .     S
C25   C59    1.72862       .     S
C59   C25    1.72862       .     S
C26   C31    1.45127       .     S
C31   C26    1.45127       .     S
C26   C53    1.50813       .     S
C53   C26    1.50813       .     S
N27   C47    1.34214       .     S
C47   N27    1.34214       .     S
N27   C55    1.32687       .     S
C55   N27    1.32687       .     S
C28   C34    1.48271       .     S
C34   C28    1.48271       .     S
C28   C36    1.40862       .     S
C36   C28    1.40862       .     S
C29   H30    0.92986       .     S
H30   C29    0.92986       .     S
C29   C35    1.39352       .     S
C35   C29    1.39352       .     S
C29   C47    1.37313       .     S
C47   C29    1.37313       .     S
C31   C38    1.48996       .     S
C38   C31    1.48996       .     S
C32   H33    0.93061       .     S
H33   C32    0.93061       .     S
C32   C34    1.40161       .     S
C34   C32    1.40161       .     S
C32   C45    1.38328       .     S
C45   C32    1.38328       .     S
C34   C41    1.38518       .     S
C41   C34    1.38518       .     S
C35   C43    1.37699       .     S
C43   C35    1.37699       .     S
C36   C38    1.39949       .     S
C38   C36    1.39949       .     S
C36   C50    1.45500       .     S
C50   C36    1.45500       .     S
C37   C38    1.40332       .     S
C38   C37    1.40332       .     S
C37   C49    1.43828       .     S
C49   C37    1.43828       .     S
N39   C49    1.13424       .     S
C49   N39    1.13424       .     S
N40   C50    1.13110       .     S
C50   N40    1.13110       .     S
C41   H42    0.93085       .     S
H42   C41    0.93085       .     S
C41   C51    1.37926   1_554     S
C51   C41    1.37926   1_556     S
C43   H44    0.92936       .     S
H44   C43    0.92936       .     S
C43   C55    1.37612       .     S
C55   C43    1.37612       .     S
C45   H46    0.92975       .     S
H46   C45    0.92975       .     S
C47   H48    0.93051       .     S
H48   C47    0.93051       .     S
C51   H52    0.93022       .     S
H52   C51    0.93022       .     S
C53   H54    0.93139       .     S
H54   C53    0.93139       .     S
C53   C57    1.38742       .     S
C57   C53    1.38742       .     S
C55   H56    0.92952       .     S
H56   C55    0.92952       .     S
C57   H58    0.92952       .     S
H58   C57    0.92952       .     S
C59   H60    0.92959       .     S
H60   C59    0.92959       .     S
C59   C61    1.39408       .     S
C61   C59    1.39408       .     S
C61   H62    0.92943   1_554     S
H62   C61    0.92943   1_556     S
H1    O0     0.82000       .     S
O0    H1     0.82000       .     S
C19   O0     1.30177       .     S
O0    C19    1.30177       .     S
H3    O2     0.82094       .     S
O2    H3     0.82094       .     S
C20   O2     1.29392       .     S
O2    C20    1.29392       .     S
C19   O4     1.20271       .     S
O4    C19    1.20271       .     S
C20   O5     1.21539       .     S
O5    C20    1.21539       .     S
H7    C6     0.93097       .     S
C6    H7     0.93097       .     S
C8    C6     1.39062   1_655     S
C6    C8     1.39062   1_455     S
C9    C6     1.39213       .     S
C6    C9     1.39213       .     S
C10   C8     1.39029       .     S
C8    C10    1.39029       .     S
C19   C8     1.49336       .     S
C8    C19    1.49336       .     S
C15   C9     1.38744       .     S
C9    C15    1.38744       .     S
C20   C9     1.49029       .     S
C9    C20    1.49029       .     S
H11   C10    0.92940       .     S
C10   H11    0.92940       .     S
C14   C10    1.39805   1_455     S
C10   C14    1.39805   1_655     S
H13   C12    0.92964       .     S
C12   H13    0.92964       .     S
C21   C12    1.36657   1_455     S
C12   C21    1.36657   1_655     S
C15   C14    1.37854       .     S
C14   C15    1.37854       .     S
C21   C14    1.48343       .     S
C14   C21    1.48343       .     S
H16   C15    0.93033       .     S
C15   H16    0.93033       .     S
H18   C17    0.93003       .     S
C17   H18    0.93003       .     S
C21   C17    1.39328       .     S
C17   C21    1.39328       .     S
C23   N22    1.33901       .     S
N22   C23    1.33901       .     S
C28   N22    1.34000       .     S
N22   C28    1.34000       .     S
C35   C23    1.48429       .     S
C23   C35    1.48429       .     S
C37   C23    1.40704       .     S
C23   C37    1.40704       .     S
C45   N24    1.33049   1_554     S
N24   C45    1.33049   1_556     S
C51   N24    1.33757       .     S
N24   C51    1.33757       .     S
C31   C25    1.39128       .     S
C25   C31    1.39128       .     S
C59   C25    1.72862       .     S
C25   C59    1.72862       .     S
C31   C26    1.45127       .     S
C26   C31    1.45127       .     S
C53   C26    1.50813       .     S
C26   C53    1.50813       .     S
C47   N27    1.34214       .     S
N27   C47    1.34214       .     S
C55   N27    1.32687       .     S
N27   C55    1.32687       .     S
C34   C28    1.48271       .     S
C28   C34    1.48271       .     S
C36   C28    1.40862       .     S
C28   C36    1.40862       .     S
H30   C29    0.92986       .     S
C29   H30    0.92986       .     S
C35   C29    1.39352       .     S
C29   C35    1.39352       .     S
C47   C29    1.37313       .     S
C29   C47    1.37313       .     S
C38   C31    1.48996       .     S
C31   C38    1.48996       .     S
H33   C32    0.93061       .     S
C32   H33    0.93061       .     S
C34   C32    1.40161       .     S
C32   C34    1.40161       .     S
C45   C32    1.38328       .     S
C32   C45    1.38328       .     S
C41   C34    1.38518       .     S
C34   C41    1.38518       .     S
C43   C35    1.37699       .     S
C35   C43    1.37699       .     S
C38   C36    1.39949       .     S
C36   C38    1.39949       .     S
C50   C36    1.45500       .     S
C36   C50    1.45500       .     S
C38   C37    1.40332       .     S
C37   C38    1.40332       .     S
C49   C37    1.43828       .     S
C37   C49    1.43828       .     S
C49   N39    1.13424       .     S
N39   C49    1.13424       .     S
C50   N40    1.13110       .     S
N40   C50    1.13110       .     S
H42   C41    0.93085       .     S
C41   H42    0.93085       .     S
C51   C41    1.37926   1_556     S
C41   C51    1.37926   1_554     S
H44   C43    0.92936       .     S
C43   H44    0.92936       .     S
C55   C43    1.37612       .     S
C43   C55    1.37612       .     S
H46   C45    0.92975       .     S
C45   H46    0.92975       .     S
H48   C47    0.93051       .     S
C47   H48    0.93051       .     S
H52   C51    0.93022       .     S
C51   H52    0.93022       .     S
H54   C53    0.93139       .     S
C53   H54    0.93139       .     S
C57   C53    1.38742       .     S
C53   C57    1.38742       .     S
H56   C55    0.92952       .     S
C55   H56    0.92952       .     S
H58   C57    0.92952       .     S
C57   H58    0.92952       .     S
H60   C59    0.92959       .     S
C59   H60    0.92959       .     S
C61   C59    1.39408       .     S
C59   C61    1.39408       .     S
H62   C61    0.92943   1_556     S
C61   H62    0.92943   1_554     S
