data_I
_chemical_name_common  '/data/user2/wty/HOF/MOFDiff/mofdiff/data/test/297_sof-9'
_cell_length_a 17.70180
_cell_length_b 20.53060
_cell_length_c 21.24520
_cell_angle_alpha 90.00000
_cell_angle_beta  90.00000
_cell_angle_gamma 90.00000
_space_group_name_H-M_alt      'P 1'


loop_
_space_group_symop_operation_xyz
  'x, y, z' 

loop_
_atom_site_label
_atom_site_fract_x
_atom_site_fract_y
_atom_site_fract_z
_atom_site_type_symbol
O0     0.85316  0.09608  0.27663     O
H1      0.8713    0.062   0.2607     H
O2     0.89258  0.14027  0.18658     O
O3     0.87462  0.38283   0.1724     O
O4     0.77271  0.42869  0.21652     O
H5      0.7871   0.4614   0.1961     H
O6     0.43955  0.06913  0.59347     O
H7      0.4303   0.0342   0.6125     H
O8      0.3993  0.11257  0.68337     O
O9      0.3543  0.35388   0.6767     O
O10    0.41634  0.41141  0.60478     O
H11      0.396    0.443   0.6234     H
C12    0.69441  0.28392  0.43319     C
C13    0.83575  0.26184  0.22407     C
H14     0.8717   0.2619   0.1922     H
C15    0.79783  0.31869  0.23888     C
C16    0.74424   0.3188  0.28727     C
H17     0.7186    0.357   0.2972     H
C18    0.72919  0.26207  0.32046     C
C19     0.7677  0.20486  0.30536     C
H20     0.7582   0.1669   0.3278     H
C21    0.82041  0.20461  0.25662     C
C22    0.81935  0.37927  0.20566     C
C23    0.85973  0.14339  0.23738     C
C24    0.67306  0.26072   0.3732     C
C25    0.60123  0.23509  0.36385     C
C26      0.577  0.21219   0.3035     C
H27       0.61   0.2148   0.2696     H
C28     0.5074    0.187   0.2946     C
H29     0.4934   0.1715   0.2551     H
C30     0.4555    0.184  0.34549     C
H31     0.4074    0.167   0.3391     H
C32    0.47581  0.20579  0.40359     C
H33     0.4407   0.2039   0.4361     H
C34    0.54908  0.23141  0.41607     C
C35    0.57095  0.25315  0.47534     C
C36    0.64331  0.27864   0.4852     C
C37    0.66964  0.29953   0.5456     C
H38     0.6382   0.2951   0.5804     H
C39     0.7393   0.3256  0.55323     C
H40     0.7548   0.3391    0.593     H
C41     0.7885   0.3326   0.5018     C
H42     0.8359   0.3511   0.5078     H
C43    0.76746   0.3127  0.44396     C
H44     0.8007   0.3176   0.4104     H
C45    0.41766  0.23751  0.63007     C
H46     0.3858    0.234   0.6647     H
C47     0.4486   0.1824  0.60408     C
C48    0.49793  0.18723  0.55396     C
H49     0.5183   0.1497   0.5363     H
C50    0.51748  0.24811  0.52955     C
C51    0.48392  0.30324  0.55486     C
H52     0.4952   0.3439   0.5381     H
C53     0.4336  0.29849  0.60495     C
C54     0.3971  0.35722  0.63254     C
C55     0.4272  0.11719  0.63012     C
N56     0.6086   0.0376  0.64447     N
N57    0.68737  0.25794  0.71468     N
N58     0.6342  0.48675  0.65889     N
N59     0.7911   0.0795   0.8312     N
N60     0.8065  0.41227   0.8548     N
N61    0.09887  0.01209   0.2258     N
N62    0.07218  0.23672  0.14104     N
N63    0.17269  0.46264    0.169     N
N64     0.9267   0.0733  0.03382     N
N65      0.967  0.40299   0.0071     N
C66     0.6348  0.09378   0.7394     C
H67     0.6313   0.0961    0.783     H
C68     0.6727  0.13926  0.64055     C
H69     0.6946   0.1722   0.6166     H
C70    0.67131  0.14306  0.70573     C
C71     0.6043   0.0419   0.7074     C
H72     0.5802   0.0091   0.7299     H
C73     0.6411  0.08568   0.6122     C
H74     0.6425   0.0828   0.5686     H
C75    0.70539  0.19994   0.7384     C
C76    0.75137  0.19297  0.79146     C
C77    0.77754   0.2477  0.82254     C
C78    0.75866  0.30898  0.79682     C
C79    0.71347  0.31175  0.74341     C
C80     0.5924  0.43354   0.6609     C
H81     0.5449   0.4347   0.6422     H
C82     0.6151  0.37661  0.68905     C
H83     0.5829   0.3409   0.6912     H
C84    0.68763  0.37367  0.71427     C
C85     0.7312  0.42989  0.71262     C
H86     0.7796   0.4302   0.7297     H
C87     0.7017  0.48486  0.68546     C
H88     0.7306   0.5227   0.6857     H
C89     0.7732  0.12954  0.81329     C
C90     0.7847  0.36618  0.82896     C
C91     0.8247  0.24294  0.87995     C
C92     0.8968   0.2221   0.8757     C
H93     0.9161   0.2089    0.837     H
C94     0.9428   0.2202   0.9293     C
H95     0.9926   0.2064   0.9256     H
C96     0.9168  0.23781  0.98541     C
C97     0.8414   0.2602  0.99444     C
C98     0.8103   0.2875   0.0542     C
H99     0.8404   0.2878     0.09     H
C100    0.7391   0.3121   0.0577     C
H101    0.7227   0.3287   0.0961     H
C102    0.6892   0.3138   0.0068     C
H103      0.64   0.3293   0.0108     H
C104    0.7181   0.2903   0.9481     C
H105    0.6869   0.2928   0.9129     H
C106     0.793   0.2627  0.93996     C
C107   0.09979  0.01158  0.16433     C
H108    0.1136   0.9733   0.1441     H
C109   0.08115   0.0653  0.12754     C
H110    0.0817   0.0628   0.0838     H
C111   0.06193  0.12193  0.15752     C
C112   0.06345  0.12414  0.22251     C
H113    0.0524   0.1623   0.2441     H
C114    0.0821  0.06738  0.25435     C
H115    0.0828   0.0683   0.2981     H
C116   0.04013  0.18154   0.1218     C
C117    0.9895  0.17928  0.07151     C
C118   0.96933  0.23758  0.04054     C
C119   0.00182  0.29425  0.06281     C
C120   0.05399  0.29261  0.11209     C
C121    0.2083  0.40754   0.1565     C
H122    0.2608   0.4069   0.1592     H
C123    0.1715  0.35101   0.1397     C
H124    0.1985   0.3128   0.1326     H
C125   0.09448    0.352  0.13347     C
C126    0.0576  0.40852   0.1456     C
H127    0.0054   0.4111   0.1412     H
C128    0.0992  0.46308    0.165     C
H129    0.0734    0.501   0.1753     H
C130    0.9543   0.1201  0.05069     C
C131    0.9831  0.35461  0.03161     C
loop_
_geom_bond_atom_site_label_1
_geom_bond_atom_site_label_2
_geom_bond_distance
_geom_bond_site_symmetry_2
_ccdc_geom_bond_type
O0    H1     0.84096       .     S
H1    O0     0.84096       .     S
O0    C23    1.28542       .     S
C23   O0     1.28542       .     S
O2    C23    1.22762       .     S
C23   O2     1.22762       .     S
O3    C22    1.20908       .     S
C22   O3     1.20908       .     S
O4    H5     0.83909       .     S
H5    O4     0.83909       .     S
O4    C22    1.32828       .     S
C22   O4     1.32828       .     S
O6    H7     0.83937       .     S
H7    O6     0.83937       .     S
O6    C55    1.27579       .     S
C55   O6     1.27579       .     S
O8    C55    1.23805       .     S
C55   O8     1.23805       .     S
O9    C54    1.20785       .     S
C54   O9     1.20785       .     S
O10   H11    0.84069       .     S
H11   O10    0.84069       .     S
O10   C54    1.30445       .     S
C54   O10    1.30445       .     S
C12   C24    1.41211       .     S
C24   C12    1.41211       .     S
C12   C36    1.43211       .     S
C36   C12    1.43211       .     S
C12   C43    1.44001       .     S
C43   C12    1.44001       .     S
C13   H14    0.92921       .     S
H14   C13    0.92921       .     S
C13   C15    1.38270       .     S
C15   C13    1.38270       .     S
C13   C21    1.39014       .     S
C21   C13    1.39014       .     S
C15   C16    1.39886       .     S
C16   C15    1.39886       .     S
C15   C22    1.47991       .     S
C22   C15    1.47991       .     S
C16   H17    0.93037       .     S
H17   C16    0.93037       .     S
C16   C18    1.38734       .     S
C18   C16    1.38734       .     S
C18   C19    1.39542       .     S
C19   C18    1.39542       .     S
C18   C24    1.49782       .     S
C24   C18    1.49782       .     S
C19   H20    0.92894       .     S
H20   C19    0.92894       .     S
C19   C21    1.39387       .     S
C21   C19    1.39387       .     S
C21   C23    1.49375       .     S
C23   C21    1.49375       .     S
C24   C25    1.39036       .     S
C25   C24    1.39036       .     S
C25   C26    1.43140       .     S
C26   C25    1.43140       .     S
C25   C34    1.44525       .     S
C34   C25    1.44525       .     S
C26   H27    0.92888       .     S
H27   C26    0.92888       .     S
C26   C28    1.34950       .     S
C28   C26    1.34950       .     S
C28   H29    0.93108       .     S
H29   C28    0.93108       .     S
C28   C30    1.42013       .     S
C30   C28    1.42013       .     S
C30   H31    0.93017       .     S
H31   C30    0.93017       .     S
C30   C32    1.36125       .     S
C32   C30    1.36125       .     S
C32   H33    0.92996       .     S
H33   C32    0.92996       .     S
C32   C34    1.42450       .     S
C34   C32    1.42450       .     S
C34   C35    1.39093       .     S
C35   C34    1.39093       .     S
C35   C36    1.39945       .     S
C36   C35    1.39945       .     S
C35   C50    1.49433       .     S
C50   C35    1.49433       .     S
C36   C37    1.43102       .     S
C37   C36    1.43102       .     S
C37   H38    0.92985       .     S
H38   C37    0.92985       .     S
C37   C39    1.35399       .     S
C39   C37    1.35399       .     S
C39   H40    0.93059       .     S
H40   C39    0.93059       .     S
C39   C41    1.40465       .     S
C41   C39    1.40465       .     S
C41   H42    0.92981       .     S
H42   C41    0.92981       .     S
C41   C43    1.34746       .     S
C43   C41    1.34746       .     S
C43   H44    0.92989       .     S
H44   C43    0.92989       .     S
C45   H46    0.92981       .     S
H46   C45    0.92981       .     S
C45   C47    1.37296       .     S
C47   C45    1.37296       .     S
C45   C53    1.38990       .     S
C53   C45    1.38990       .     S
C47   C48    1.38065       .     S
C48   C47    1.38065       .     S
C47   C55    1.49731       .     S
C55   C47    1.49731       .     S
C48   H49    0.92977       .     S
H49   C48    0.92977       .     S
C48   C50    1.39677       .     S
C50   C48    1.39677       .     S
C50   C51    1.38678       .     S
C51   C50    1.38678       .     S
C51   H52    0.92925       .     S
H52   C51    0.92925       .     S
C51   C53    1.39119       .     S
C53   C51    1.39119       .     S
C53   C54    1.48826       .     S
C54   C53    1.48826       .     S
N56   C71    1.34203       .     S
C71   N56    1.34203       .     S
N56   C73    1.33244       .     S
C73   N56    1.33244       .     S
N57   C75    1.33178       .     S
C75   N57    1.33178       .     S
N57   C79    1.34406       .     S
C79   N57    1.34406       .     S
N58   C80    1.32013       .     S
C80   N58    1.32013       .     S
N58   C87    1.32207       .     S
C87   N58    1.32207       .     S
N59   C89    1.14045       .     S
C89   N59    1.14045       .     S
N60   C90    1.16004       .     S
C90   N60    1.16004       .     S
N61   C107   1.30609       .     S
C107  N61    1.30609       .     S
N61   C114   1.32082       .     S
C114  N61    1.32082       .     S
N62   C116   1.33131       .     S
C116  N62    1.33131       .     S
N62   C120   1.34113       .     S
C120  N62    1.34113       .     S
N63   C121   1.32196       .     S
C121  N63    1.32196       .     S
N63   C128   1.30371       .     S
C128  N63    1.30371       .     S
N64   C130   1.13594       .     S
C130  N64    1.13594       .     S
N65   C131   1.15713       .     S
C131  N65    1.15713       .     S
C66   H67    0.92958       .     S
H67   C66    0.92958       .     S
C66   C70    1.39750       .     S
C70   C66    1.39750       .     S
C66   C71    1.37411       .     S
C71   C66    1.37411       .     S
C68   H69    0.93088       .     S
H69   C68    0.93088       .     S
C68   C70    1.38718       .     S
C70   C68    1.38718       .     S
C68   C73    1.37322       .     S
C73   C68    1.37322       .     S
C70   C75    1.48641       .     S
C75   C70    1.48641       .     S
C71   H72    0.92950       .     S
H72   C71    0.92950       .     S
C73   H74    0.92851       .     S
H74   C73    0.92851       .     S
C75   C76    1.39775       .     S
C76   C75    1.39775       .     S
C76   C77    1.38317       .     S
C77   C76    1.38317       .     S
C76   C89    1.43537       .     S
C89   C76    1.43537       .     S
C77   C78    1.41178       .     S
C78   C77    1.41178       .     S
C77   C91    1.48125       .     S
C91   C77    1.48125       .     S
C78   C79    1.38950       .     S
C79   C78    1.38950       .     S
C78   C90    1.43451       .     S
C90   C78    1.43451       .     S
C79   C84    1.48613       .     S
C84   C79    1.48613       .     S
C80   H81    0.93027       .     S
H81   C80    0.93027       .     S
C80   C82    1.37304       .     S
C82   C80    1.37304       .     S
C82   H83    0.92978       .     S
H83   C82    0.92978       .     S
C82   C84    1.39254       .     S
C84   C82    1.39254       .     S
C84   C85    1.38864       .     S
C85   C84    1.38864       .     S
C85   H86    0.93046       .     S
H86   C85    0.93046       .     S
C85   C87    1.37088       .     S
C87   C85    1.37088       .     S
C87   H88    0.93020       .     S
H88   C87    0.93020       .     S
C91   C92    1.34913       .     S
C92   C91    1.34913       .     S
C91   C106   1.45083       .     S
C106  C91    1.45083       .     S
C92   H93    0.93068       .     S
H93   C92    0.93068       .     S
C92   C94    1.40047       .     S
C94   C92    1.40047       .     S
C94   H95    0.92929       .     S
H95   C94    0.92929       .     S
C94   C96    1.32799       .     S
C96   C94    1.32799       .     S
C96   C97    1.42463       .     S
C97   C96    1.42463       .     S
C96   C118   1.49550   1_556     S
C118  C96    1.49550   1_554     S
C97   C98    1.49303   1_556     S
C98   C97    1.49303   1_554     S
C97   C106   1.44095       .     S
C106  C97    1.44095       .     S
C98   H99    0.92866       .     S
H99   C98    0.92866       .     S
C98   C100   1.35983       .     S
C100  C98    1.35983       .     S
C100  H101   0.93058       .     S
H101  C100   0.93058       .     S
C100  C102   1.39673       .     S
C102  C100   1.39673       .     S
C102  H103   0.93113       .     S
H103  C102   0.93113       .     S
C102  C104   1.43169   1_554     S
C104  C102   1.43169   1_556     S
C104  H105   0.93108       .     S
H105  C104   0.93108       .     S
C104  C106   1.45221       .     S
C106  C104   1.45221       .     S
C107  H108   0.92851   1_545     S
H108  C107   0.92852   1_565     S
C107  C109   1.39147       .     S
C109  C107   1.39147       .     S
C109  H110   0.93073       .     S
H110  C109   0.93073       .     S
C109  C111   1.36864       .     S
C111  C109   1.36864       .     S
C111  C112   1.38173       .     S
C112  C111   1.38173       .     S
C111  C116   1.49083       .     S
C116  C111   1.49083       .     S
C112  H113   0.92868       .     S
H113  C112   0.92868       .     S
C112  C114   1.38728       .     S
C114  C112   1.38728       .     S
C114  H115   0.92975       .     S
H115  C114   0.92975       .     S
C116  C117   1.39532   1_455     S
C117  C116   1.39532   1_655     S
C117  C118   1.41175       .     S
C118  C117   1.41175       .     S
C117  C130   1.43532       .     S
C130  C117   1.43532       .     S
C118  C119   1.38141   1_655     S
C119  C118   1.38141   1_455     S
C119  C120   1.39647       .     S
C120  C119   1.39647       .     S
C119  C131   1.44391   1_455     S
C131  C119   1.44391   1_655     S
C120  C125   1.48552       .     S
C125  C120   1.48552       .     S
C121  H122   0.93121       .     S
H122  C121   0.93121       .     S
C121  C123   1.37794       .     S
C123  C121   1.37794       .     S
C123  H124   0.93091       .     S
H124  C123   0.93091       .     S
C123  C125   1.36995       .     S
C125  C123   1.36995       .     S
C125  C126   1.35614       .     S
C126  C125   1.35614       .     S
C126  H127   0.93026       .     S
H127  C126   0.93026       .     S
C126  C128   1.40246       .     S
C128  C126   1.40246       .     S
C128  H129   0.92874       .     S
H129  C128   0.92874       .     S
H1    O0     0.84096       .     S
O0    H1     0.84096       .     S
C23   O0     1.28542       .     S
O0    C23    1.28542       .     S
C23   O2     1.22762       .     S
O2    C23    1.22762       .     S
C22   O3     1.20908       .     S
O3    C22    1.20908       .     S
H5    O4     0.83909       .     S
O4    H5     0.83909       .     S
C22   O4     1.32828       .     S
O4    C22    1.32828       .     S
H7    O6     0.83937       .     S
O6    H7     0.83937       .     S
C55   O6     1.27579       .     S
O6    C55    1.27579       .     S
C55   O8     1.23805       .     S
O8    C55    1.23805       .     S
C54   O9     1.20785       .     S
O9    C54    1.20785       .     S
H11   O10    0.84069       .     S
O10   H11    0.84069       .     S
C54   O10    1.30445       .     S
O10   C54    1.30445       .     S
C24   C12    1.41211       .     S
C12   C24    1.41211       .     S
C36   C12    1.43211       .     S
C12   C36    1.43211       .     S
C43   C12    1.44001       .     S
C12   C43    1.44001       .     S
H14   C13    0.92921       .     S
C13   H14    0.92921       .     S
C15   C13    1.38270       .     S
C13   C15    1.38270       .     S
C21   C13    1.39014       .     S
C13   C21    1.39014       .     S
C16   C15    1.39886       .     S
C15   C16    1.39886       .     S
C22   C15    1.47991       .     S
C15   C22    1.47991       .     S
H17   C16    0.93037       .     S
C16   H17    0.93037       .     S
C18   C16    1.38734       .     S
C16   C18    1.38734       .     S
C19   C18    1.39542       .     S
C18   C19    1.39542       .     S
C24   C18    1.49782       .     S
C18   C24    1.49782       .     S
H20   C19    0.92894       .     S
C19   H20    0.92894       .     S
C21   C19    1.39387       .     S
C19   C21    1.39387       .     S
C23   C21    1.49375       .     S
C21   C23    1.49375       .     S
C25   C24    1.39036       .     S
C24   C25    1.39036       .     S
C26   C25    1.43140       .     S
C25   C26    1.43140       .     S
C34   C25    1.44525       .     S
C25   C34    1.44525       .     S
H27   C26    0.92888       .     S
C26   H27    0.92888       .     S
C28   C26    1.34950       .     S
C26   C28    1.34950       .     S
H29   C28    0.93108       .     S
C28   H29    0.93108       .     S
C30   C28    1.42013       .     S
C28   C30    1.42013       .     S
H31   C30    0.93017       .     S
C30   H31    0.93017       .     S
C32   C30    1.36125       .     S
C30   C32    1.36125       .     S
H33   C32    0.92996       .     S
C32   H33    0.92996       .     S
C34   C32    1.42450       .     S
C32   C34    1.42450       .     S
C35   C34    1.39093       .     S
C34   C35    1.39093       .     S
C36   C35    1.39945       .     S
C35   C36    1.39945       .     S
C50   C35    1.49433       .     S
C35   C50    1.49433       .     S
C37   C36    1.43102       .     S
C36   C37    1.43102       .     S
H38   C37    0.92985       .     S
C37   H38    0.92985       .     S
C39   C37    1.35399       .     S
C37   C39    1.35399       .     S
H40   C39    0.93059       .     S
C39   H40    0.93059       .     S
C41   C39    1.40465       .     S
C39   C41    1.40465       .     S
H42   C41    0.92981       .     S
C41   H42    0.92981       .     S
C43   C41    1.34746       .     S
C41   C43    1.34746       .     S
H44   C43    0.92989       .     S
C43   H44    0.92989       .     S
H46   C45    0.92981       .     S
C45   H46    0.92981       .     S
C47   C45    1.37296       .     S
C45   C47    1.37296       .     S
C53   C45    1.38990       .     S
C45   C53    1.38990       .     S
C48   C47    1.38065       .     S
C47   C48    1.38065       .     S
C55   C47    1.49731       .     S
C47   C55    1.49731       .     S
H49   C48    0.92977       .     S
C48   H49    0.92977       .     S
C50   C48    1.39677       .     S
C48   C50    1.39677       .     S
C51   C50    1.38678       .     S
C50   C51    1.38678       .     S
H52   C51    0.92925       .     S
C51   H52    0.92925       .     S
C53   C51    1.39119       .     S
C51   C53    1.39119       .     S
C54   C53    1.48826       .     S
C53   C54    1.48826       .     S
C71   N56    1.34203       .     S
N56   C71    1.34203       .     S
C73   N56    1.33244       .     S
N56   C73    1.33244       .     S
C75   N57    1.33178       .     S
N57   C75    1.33178       .     S
C79   N57    1.34406       .     S
N57   C79    1.34406       .     S
C80   N58    1.32013       .     S
N58   C80    1.32013       .     S
C87   N58    1.32207       .     S
N58   C87    1.32207       .     S
C89   N59    1.14045       .     S
N59   C89    1.14045       .     S
C90   N60    1.16004       .     S
N60   C90    1.16004       .     S
C107  N61    1.30609       .     S
N61   C107   1.30609       .     S
C114  N61    1.32082       .     S
N61   C114   1.32082       .     S
C116  N62    1.33131       .     S
N62   C116   1.33131       .     S
C120  N62    1.34113       .     S
N62   C120   1.34113       .     S
C121  N63    1.32196       .     S
N63   C121   1.32196       .     S
C128  N63    1.30371       .     S
N63   C128   1.30371       .     S
C130  N64    1.13594       .     S
N64   C130   1.13594       .     S
C131  N65    1.15713       .     S
N65   C131   1.15713       .     S
H67   C66    0.92958       .     S
C66   H67    0.92958       .     S
C70   C66    1.39750       .     S
C66   C70    1.39750       .     S
C71   C66    1.37411       .     S
C66   C71    1.37411       .     S
H69   C68    0.93088       .     S
C68   H69    0.93088       .     S
C70   C68    1.38718       .     S
C68   C70    1.38718       .     S
C73   C68    1.37322       .     S
C68   C73    1.37322       .     S
C75   C70    1.48641       .     S
C70   C75    1.48641       .     S
H72   C71    0.92950       .     S
C71   H72    0.92950       .     S
H74   C73    0.92851       .     S
C73   H74    0.92851       .     S
C76   C75    1.39775       .     S
C75   C76    1.39775       .     S
C77   C76    1.38317       .     S
C76   C77    1.38317       .     S
C89   C76    1.43537       .     S
C76   C89    1.43537       .     S
C78   C77    1.41178       .     S
C77   C78    1.41178       .     S
C91   C77    1.48125       .     S
C77   C91    1.48125       .     S
C79   C78    1.38950       .     S
C78   C79    1.38950       .     S
C90   C78    1.43451       .     S
C78   C90    1.43451       .     S
C84   C79    1.48613       .     S
C79   C84    1.48613       .     S
H81   C80    0.93027       .     S
C80   H81    0.93027       .     S
C82   C80    1.37304       .     S
C80   C82    1.37304       .     S
H83   C82    0.92978       .     S
C82   H83    0.92978       .     S
C84   C82    1.39254       .     S
C82   C84    1.39254       .     S
C85   C84    1.38864       .     S
C84   C85    1.38864       .     S
H86   C85    0.93046       .     S
C85   H86    0.93046       .     S
C87   C85    1.37088       .     S
C85   C87    1.37088       .     S
H88   C87    0.93020       .     S
C87   H88    0.93020       .     S
C92   C91    1.34913       .     S
C91   C92    1.34913       .     S
C106  C91    1.45083       .     S
C91   C106   1.45083       .     S
H93   C92    0.93068       .     S
C92   H93    0.93068       .     S
C94   C92    1.40047       .     S
C92   C94    1.40047       .     S
H95   C94    0.92929       .     S
C94   H95    0.92929       .     S
C96   C94    1.32799       .     S
C94   C96    1.32799       .     S
C97   C96    1.42463       .     S
C96   C97    1.42463       .     S
C118  C96    1.49550   1_554     S
C96   C118   1.49550   1_556     S
C98   C97    1.49303   1_554     S
C97   C98    1.49303   1_556     S
C106  C97    1.44095       .     S
C97   C106   1.44095       .     S
H99   C98    0.92866       .     S
C98   H99    0.92866       .     S
C100  C98    1.35983       .     S
C98   C100   1.35983       .     S
H101  C100   0.93058       .     S
C100  H101   0.93058       .     S
C102  C100   1.39673       .     S
C100  C102   1.39673       .     S
H103  C102   0.93113       .     S
C102  H103   0.93113       .     S
C104  C102   1.43169   1_556     S
C102  C104   1.43169   1_554     S
H105  C104   0.93108       .     S
C104  H105   0.93108       .     S
C106  C104   1.45221       .     S
C104  C106   1.45221       .     S
H108  C107   0.92852   1_565     S
C107  H108   0.92851   1_545     S
C109  C107   1.39147       .     S
C107  C109   1.39147       .     S
H110  C109   0.93073       .     S
C109  H110   0.93073       .     S
C111  C109   1.36864       .     S
C109  C111   1.36864       .     S
C112  C111   1.38173       .     S
C111  C112   1.38173       .     S
C116  C111   1.49083       .     S
C111  C116   1.49083       .     S
H113  C112   0.92868       .     S
C112  H113   0.92868       .     S
C114  C112   1.38728       .     S
C112  C114   1.38728       .     S
H115  C114   0.92975       .     S
C114  H115   0.92975       .     S
C117  C116   1.39532   1_655     S
C116  C117   1.39532   1_455     S
C118  C117   1.41175       .     S
C117  C118   1.41175       .     S
C130  C117   1.43532       .     S
C117  C130   1.43532       .     S
C119  C118   1.38141   1_455     S
C118  C119   1.38141   1_655     S
C120  C119   1.39647       .     S
C119  C120   1.39647       .     S
C131  C119   1.44391   1_655     S
C119  C131   1.44391   1_455     S
C125  C120   1.48552       .     S
C120  C125   1.48552       .     S
H122  C121   0.93121       .     S
C121  H122   0.93121       .     S
C123  C121   1.37794       .     S
C121  C123   1.37794       .     S
H124  C123   0.93091       .     S
C123  H124   0.93091       .     S
C125  C123   1.36995       .     S
C123  C125   1.36995       .     S
C126  C125   1.35614       .     S
C125  C126   1.35614       .     S
H127  C126   0.93026       .     S
C126  H127   0.93026       .     S
C128  C126   1.40246       .     S
C126  C128   1.40246       .     S
H129  C128   0.92874       .     S
C128  H129   0.92874       .     S
