data_I
_chemical_name_common  '/data/user2/wty/HOF/MOFDiff/mofdiff/data/test/298-ecut-hof-30'
_cell_length_a  8.42230
_cell_length_b  9.69300
_cell_length_c 12.76650
_cell_angle_alpha 78.48800
_cell_angle_beta  83.38600
_cell_angle_gamma 87.28000
_space_group_name_H-M_alt      'P 1'


loop_
_space_group_symop_operation_xyz
  'x, y, z' 

loop_
_atom_site_label
_atom_site_fract_x
_atom_site_fract_y
_atom_site_fract_z
_atom_site_type_symbol
C0      0.9425   0.5931   0.8131     C
H1      0.0314   0.5855    0.855     H
H2      0.8975    0.687   0.8048     H
H3      0.9785   0.5726   0.7436     H
C4      0.8785   0.3468    0.887     C
H5      0.9059   0.3173   0.8196     H
H6      0.7954   0.2889   0.9289     H
H7       0.971   0.3377   0.9256     H
N8      0.8225   0.4939   0.8673     N
H9      0.7398   0.5021   0.8274     H
H10     0.7858   0.5171   0.9307     H
C11      0.879   0.0613   0.3245     C
H12     0.8581   0.0784    0.253     H
C13     0.0279   0.0124   0.3511     C
C14     0.0614    0.986   0.4607     C
C15      0.213   0.9384   0.4894     C
C16      0.242   0.9147   0.5952     C
H17     0.3426   0.8823    0.614     H
C18     0.3422   0.9145   0.4047     C
C19     0.1551   0.9831   0.2666     C
C20     0.4927   0.1816   0.1756     C
C21     0.5254   0.0336   0.1617     C
C22     0.4335    0.921   0.2172     C
C23      0.463   0.7846   0.1999     C
H24     0.3989   0.7117   0.2379     H
C25      0.589   0.7577   0.1256     C
C26     0.6237   0.6099   0.1074     C
C27     0.6829   0.8678     0.07     C
H28     0.7682   0.8505   0.0209     H
C29     0.6513   0.0026   0.0869     C
H30     0.7148   0.0753   0.0477     H
H31      0.573    0.378    0.127     H
N32     0.3043     0.94   0.3001     N
O33     0.3755   0.2171   0.2292     O
O34     0.5992   0.2697   0.1258     O
O35     0.5197   0.5184   0.1487     O
O36     0.7511   0.5852   0.0548     O
O37     0.4746   0.8746    0.425     O
O38      0.131   0.9978   0.1733     O
C39      0.739   0.6537   0.5557     C
H40     0.6272   0.6686   0.5764     H
H41     0.7858   0.7419   0.5213     H
H42     0.7911   0.6147   0.6184     H
C43     0.7333   0.6066   0.3774     C
H44     0.7373   0.5272   0.3426     H
H45     0.8154   0.6708   0.3427     H
H46     0.6307   0.6535   0.3728     H
C47     0.8041    0.431   0.5245     C
H48     0.8198    0.367   0.4786     H
N49     0.7575   0.5608   0.4846     N
O50     0.8284   0.3893   0.6201     O
loop_
_geom_bond_atom_site_label_1
_geom_bond_atom_site_label_2
_geom_bond_distance
_geom_bond_site_symmetry_2
_ccdc_geom_bond_type
H10   O36    1.82309   1_556     S
O36   H10    1.82309   1_554     S
H31   O35    1.48127       .     S
O35   H31    1.48127       .     S
H31   O36    2.52226       .     S
O36   H31    2.52226       .     S
C0    H1     0.96098   1_655     S
H1    C0     0.96098   1_455     S
C0    H2     0.95984       .     S
H2    C0     0.95984       .     S
C0    H3     0.95987       .     S
H3    C0     0.95987       .     S
C0    N8     1.44582       .     S
N8    C0     1.44582       .     S
C4    H5     0.96001       .     S
H5    C4     0.96001       .     S
C4    H6     0.96030       .     S
H6    C4     0.96030       .     S
C4    H7     0.96027       .     S
H7    C4     0.96027       .     S
C4    N8     1.46256       .     S
N8    C4     1.46256       .     S
N8    H9     0.90069       .     S
H9    N8     0.90069       .     S
N8    H10    0.89981       .     S
H10   N8     0.89981       .     S
C11   H12    0.93034       .     S
H12   C11    0.93034       .     S
C11   C13    1.37482   1_655     S
C13   C11    1.37482   1_455     S
C13   C14    1.42970   1_545     S
C14   C13    1.42970   1_565     S
C13   C19    1.48973   1_545     S
C19   C13    1.48973   1_565     S
C14   C15    1.40063       .     S
C15   C14    1.40063       .     S
C15   C16    1.37245       .     S
C16   C15    1.37245       .     S
C15   C18    1.48729       .     S
C18   C15    1.48729       .     S
C16   H17    0.93039       .     S
H17   C16    0.93039       .     S
C18   N32    1.38028       .     S
N32   C18    1.38028       .     S
C18   O37    1.20243       .     S
O37   C18    1.20243       .     S
C19   N32    1.39254       .     S
N32   C19    1.39254       .     S
C19   O38    1.21056       .     S
O38   C19    1.21056       .     S
C20   C21    1.48935       .     S
C21   C20    1.48935       .     S
C20   O33    1.21126       .     S
O33   C20    1.21126       .     S
C20   O34    1.28943       .     S
O34   C20    1.28943       .     S
C21   C22    1.39195   1_545     S
C22   C21    1.39195   1_565     S
C21   C29    1.40627       .     S
C29   C21    1.40627       .     S
C22   C23    1.38970       .     S
C23   C22    1.38970       .     S
C22   N32    1.46000       .     S
N32   C22    1.46000       .     S
C23   H24    0.93014       .     S
H24   C23    0.93014       .     S
C23   C25    1.39085       .     S
C25   C23    1.39085       .     S
C25   C26    1.50642       .     S
C26   C25    1.50642       .     S
C25   C27    1.38443       .     S
C27   C25    1.38443       .     S
C26   O35    1.26986       .     S
O35   C26    1.26986       .     S
C26   O36    1.23830       .     S
O36   C26    1.23830       .     S
C27   H28    0.92949       .     S
H28   C27    0.92949       .     S
C27   C29    1.37511   1_565     S
C29   C27    1.37511   1_545     S
C29   H30    0.93081       .     S
H30   C29    0.93081       .     S
H31   O34    1.06516       .     S
O34   H31    1.06516       .     S
C39   H40    0.96038       .     S
H40   C39    0.96038       .     S
C39   H41    0.95988       .     S
H41   C39    0.95988       .     S
C39   H42    0.95947       .     S
H42   C39    0.95947       .     S
C39   N49    1.39263       .     S
N49   C39    1.39263       .     S
C43   H44    0.95990       .     S
H44   C43    0.95990       .     S
C43   H45    0.96014       .     S
H45   C43    0.96014       .     S
C43   H46    0.95947       .     S
H46   C43    0.95947       .     S
C43   N49    1.38736       .     S
N49   C43    1.38736       .     S
C47   H48    0.93014       .     S
H48   C47    0.93014       .     S
C47   N49    1.31903       .     S
N49   C47    1.31903       .     S
C47   O50    1.24403       .     S
O50   C47    1.24403       .     S
O36   H10    1.82309   1_554     S
H10   O36    1.82309   1_556     S
O35   H31    1.48127       .     S
H31   O35    1.48127       .     S
O36   H31    2.52226       .     S
H31   O36    2.52226       .     S
H1    C0     0.96098   1_455     S
C0    H1     0.96098   1_655     S
H2    C0     0.95984       .     S
C0    H2     0.95984       .     S
H3    C0     0.95987       .     S
C0    H3     0.95987       .     S
N8    C0     1.44582       .     S
C0    N8     1.44582       .     S
H5    C4     0.96001       .     S
C4    H5     0.96001       .     S
H6    C4     0.96030       .     S
C4    H6     0.96030       .     S
H7    C4     0.96027       .     S
C4    H7     0.96027       .     S
N8    C4     1.46256       .     S
C4    N8     1.46256       .     S
H9    N8     0.90069       .     S
N8    H9     0.90069       .     S
H10   N8     0.89981       .     S
N8    H10    0.89981       .     S
H12   C11    0.93034       .     S
C11   H12    0.93034       .     S
C13   C11    1.37482   1_455     S
C11   C13    1.37482   1_655     S
C14   C13    1.42970   1_565     S
C13   C14    1.42970   1_545     S
C19   C13    1.48973   1_565     S
C13   C19    1.48973   1_545     S
C15   C14    1.40063       .     S
C14   C15    1.40063       .     S
C16   C15    1.37245       .     S
C15   C16    1.37245       .     S
C18   C15    1.48729       .     S
C15   C18    1.48729       .     S
H17   C16    0.93039       .     S
C16   H17    0.93039       .     S
N32   C18    1.38028       .     S
C18   N32    1.38028       .     S
O37   C18    1.20243       .     S
C18   O37    1.20243       .     S
N32   C19    1.39254       .     S
C19   N32    1.39254       .     S
O38   C19    1.21056       .     S
C19   O38    1.21056       .     S
C21   C20    1.48935       .     S
C20   C21    1.48935       .     S
O33   C20    1.21126       .     S
C20   O33    1.21126       .     S
O34   C20    1.28943       .     S
C20   O34    1.28943       .     S
C22   C21    1.39195   1_565     S
C21   C22    1.39195   1_545     S
C29   C21    1.40627       .     S
C21   C29    1.40627       .     S
C23   C22    1.38970       .     S
C22   C23    1.38970       .     S
N32   C22    1.46000       .     S
C22   N32    1.46000       .     S
H24   C23    0.93014       .     S
C23   H24    0.93014       .     S
C25   C23    1.39085       .     S
C23   C25    1.39085       .     S
C26   C25    1.50642       .     S
C25   C26    1.50642       .     S
C27   C25    1.38443       .     S
C25   C27    1.38443       .     S
O35   C26    1.26986       .     S
C26   O35    1.26986       .     S
O36   C26    1.23830       .     S
C26   O36    1.23830       .     S
H28   C27    0.92949       .     S
C27   H28    0.92949       .     S
C29   C27    1.37511   1_545     S
C27   C29    1.37511   1_565     S
H30   C29    0.93081       .     S
C29   H30    0.93081       .     S
O34   H31    1.06516       .     S
H31   O34    1.06516       .     S
H40   C39    0.96038       .     S
C39   H40    0.96038       .     S
H41   C39    0.95988       .     S
C39   H41    0.95988       .     S
H42   C39    0.95947       .     S
C39   H42    0.95947       .     S
N49   C39    1.39263       .     S
C39   N49    1.39263       .     S
H44   C43    0.95990       .     S
C43   H44    0.95990       .     S
H45   C43    0.96014       .     S
C43   H45    0.96014       .     S
H46   C43    0.95947       .     S
C43   H46    0.95947       .     S
N49   C43    1.38736       .     S
C43   N49    1.38736       .     S
H48   C47    0.93014       .     S
C47   H48    0.93014       .     S
N49   C47    1.31903       .     S
C47   N49    1.31903       .     S
O50   C47    1.24403       .     S
C47   O50    1.24403       .     S
