data_I
_chemical_name_common  '/data/user2/wty/HOF/MOFDiff/mofdiff/data/test/2_g2cbs'
_cell_length_a  7.12100
_cell_length_b  7.34700
_cell_length_c 11.66100
_cell_angle_alpha 80.19800
_cell_angle_beta  83.67300
_cell_angle_gamma 63.96600
_space_group_name_H-M_alt      'P 1'


loop_
_space_group_symop_operation_xyz
  'x, y, z' 

loop_
_atom_site_label
_atom_site_fract_x
_atom_site_fract_y
_atom_site_fract_z
_atom_site_type_symbol
Cl0    0.32826  0.09841  0.12677    Cl
S1     0.20424  0.43446  0.30662     S
O2     0.08015  0.31887  0.33569     O
C3      0.2143   0.4967  0.15215     C
O4      0.1068  0.63117  0.35099     O
C5      0.2683   0.3527  0.07611     C
O6     0.42126  0.31655  0.33931     O
C7      0.2803   0.4071   0.9566     C
H8      0.3132   0.3083   0.9056     H
C9       0.244   0.6066    0.912     C
H10     0.2533   0.6445   0.8303     H
C11     0.1942   0.7502  0.98636     C
H12      0.172   0.8861   0.9557     H
C13     0.1766   0.6966  0.10567     C
H14     0.1384   0.7972   0.1561     H
N15     0.6316   0.5644  0.38378     N
H16     0.7689   0.5008   0.3781     H
H17     0.5563   0.4951    0.388     H
N18     0.6514    0.869   0.3796     N
H19     0.7888   0.8056   0.3739     H
H20     0.5892    0.002   0.3811     H
N21     0.3306   0.8593  0.39627     N
H22      0.256   0.7891   0.4016     H
H23      0.268   0.9922   0.3978     H
C24     0.5383   0.7644  0.38598     C
loop_
_geom_bond_atom_site_label_1
_geom_bond_atom_site_label_2
_geom_bond_distance
_geom_bond_site_symmetry_2
_ccdc_geom_bond_type
H16   O2     2.08005   1_655     S
O2    H16    2.08005   1_455     S
H17   O6     2.10931       .     S
O6    H17    2.10931       .     S
H19   O4     2.06819   1_655     S
O4    H19    2.06819   1_455     S
H20   O6     2.08023       .     S
O6    H20    2.08023       .     S
H22   O4     2.06807       .     S
O4    H22    2.06807       .     S
H23   O2     2.20854   1_565     S
O2    H23    2.20854   1_545     S
Cl0   C5     1.73242       .     S
C5    Cl0    1.73242       .     S
S1    O2     1.45315       .     S
O2    S1     1.45315       .     S
S1    C3     1.78289       .     S
C3    S1     1.78289       .     S
S1    O4     1.46050       .     S
O4    S1     1.46050       .     S
S1    O6     1.45817       .     S
O6    S1     1.45817       .     S
C3    C5     1.39304       .     S
C5    C3     1.39304       .     S
C3    C13    1.39203       .     S
C13   C3     1.39203       .     S
C5    C7     1.38682   1_554     S
C7    C5     1.38682   1_556     S
C7    H8     0.94999       .     S
H8    C7     0.94999       .     S
C7    C9     1.38678       .     S
C9    C7     1.38678       .     S
C9    H10    0.94948       .     S
H10   C9     0.94948       .     S
C9    C11    1.38059       .     S
C11   C9     1.38059       .     S
C11   H12    0.94978       .     S
H12   C11    0.94978       .     S
C11   C13    1.38736   1_556     S
C13   C11    1.38736   1_554     S
C13   H14    0.94992       .     S
H14   C13    0.94992       .     S
N15   H16    0.87971       .     S
H16   N15    0.87971       .     S
N15   H17    0.88005       .     S
H17   N15    0.88005       .     S
N15   C24    1.32413       .     S
C24   N15    1.32413       .     S
N18   H19    0.88025       .     S
H19   N18    0.88025       .     S
N18   H20    0.88063   1_565     S
H20   N18    0.88063   1_545     S
N18   C24    1.32492       .     S
C24   N18    1.32492       .     S
N21   H22    0.87999       .     S
H22   N21    0.87999       .     S
N21   H23    0.88007       .     S
H23   N21    0.88007       .     S
N21   C24    1.33124       .     S
C24   N21    1.33124       .     S
O2    H16    2.08005   1_455     S
H16   O2     2.08005   1_655     S
O6    H17    2.10931       .     S
H17   O6     2.10931       .     S
O4    H19    2.06819   1_455     S
H19   O4     2.06819   1_655     S
O6    H20    2.08023       .     S
H20   O6     2.08023       .     S
O4    H22    2.06807       .     S
H22   O4     2.06807       .     S
O2    H23    2.20854   1_545     S
H23   O2     2.20854   1_565     S
C5    Cl0    1.73242       .     S
Cl0   C5     1.73242       .     S
O2    S1     1.45315       .     S
S1    O2     1.45315       .     S
C3    S1     1.78289       .     S
S1    C3     1.78289       .     S
O4    S1     1.46050       .     S
S1    O4     1.46050       .     S
O6    S1     1.45817       .     S
S1    O6     1.45817       .     S
C5    C3     1.39304       .     S
C3    C5     1.39304       .     S
C13   C3     1.39203       .     S
C3    C13    1.39203       .     S
C7    C5     1.38682   1_556     S
C5    C7     1.38682   1_554     S
H8    C7     0.94999       .     S
C7    H8     0.94999       .     S
C9    C7     1.38678       .     S
C7    C9     1.38678       .     S
H10   C9     0.94948       .     S
C9    H10    0.94948       .     S
C11   C9     1.38059       .     S
C9    C11    1.38059       .     S
H12   C11    0.94978       .     S
C11   H12    0.94978       .     S
C13   C11    1.38736   1_554     S
C11   C13    1.38736   1_556     S
H14   C13    0.94992       .     S
C13   H14    0.94992       .     S
H16   N15    0.87971       .     S
N15   H16    0.87971       .     S
H17   N15    0.88005       .     S
N15   H17    0.88005       .     S
C24   N15    1.32413       .     S
N15   C24    1.32413       .     S
H19   N18    0.88025       .     S
N18   H19    0.88025       .     S
H20   N18    0.88063   1_545     S
N18   H20    0.88063   1_565     S
C24   N18    1.32492       .     S
N18   C24    1.32492       .     S
H22   N21    0.87999       .     S
N21   H22    0.87999       .     S
H23   N21    0.88007       .     S
N21   H23    0.88007       .     S
C24   N21    1.33124       .     S
N21   C24    1.33124       .     S
