data_I
_chemical_name_common  '/data/user2/wty/HOF/MOFDiff/mofdiff/data/test/2_g25dmbs'
_cell_length_a 16.62100
_cell_length_b  7.44570
_cell_length_c  9.60160
_cell_angle_alpha 90.00000
_cell_angle_beta  90.00000
_cell_angle_gamma 90.00000
_space_group_name_H-M_alt      'P 1'


loop_
_space_group_symop_operation_xyz
  'x, y, z' 

loop_
_atom_site_label
_atom_site_fract_x
_atom_site_fract_y
_atom_site_fract_z
_atom_site_type_symbol
S0     0.63715     0.75  0.30523     S
O1     0.70926     0.75  0.21797     O
O2     0.63175   0.9115  0.39011     O
C3     0.55423     0.75   0.1917     C
C4     0.47557     0.75   0.2446     C
C5      0.4141     0.75   0.1486     C
H6      0.3583     0.75    0.182     H
C7     0.42874     0.75   0.0062     C
H8      0.3839     0.75    0.941     H
C9     0.50634     0.75   0.9541     C
C10    0.56913     0.75   0.0502     C
H11      0.625     0.75    0.021     H
C12    0.45572     0.75   0.3973     C
H13     0.3996   0.7865   0.4103     H
H14     0.4912   0.8344    0.446     H
H15     0.4635    0.629   0.4352     H
C16    0.52183     0.75   0.8007     C
H17     0.5736   0.6919   0.7818     H
H18     0.5232    0.874   0.7666     H
H19     0.4788   0.6841   0.7531     H
C20    0.24559     0.75   0.7957     C
N21    0.22026   0.9032  0.84761     N
H22     0.2388    0.999    0.818     H
H23     0.1912    0.905    0.921     H
N24    0.29621     0.75   0.6892     N
H25      0.317    0.848    0.663     H
loop_
_geom_bond_atom_site_label_1
_geom_bond_atom_site_label_2
_geom_bond_distance
_geom_bond_site_symmetry_2
_ccdc_geom_bond_type
S0    O1     1.46235       .     S
O1    S0     1.46235       .     S
S0    O2     1.45541       .     S
O2    S0     1.45541       .     S
S0    C3     1.75719       .     S
C3    S0     1.75719       .     S
C3    C4     1.40261       .     S
C4    C3     1.40261       .     S
C3    C10    1.38101       .     S
C10   C3     1.38101       .     S
C4    C5     1.37604       .     S
C5    C4     1.37604       .     S
C4    C12    1.50283       .     S
C12   C4     1.50283       .     S
C5    H6     0.98133       .     S
H6    C5     0.98133       .     S
C5    C7     1.38875       .     S
C7    C5     1.38875       .     S
C7    H8     0.97332   1_554     S
H8    C7     0.97332   1_556     S
C7    C9     1.38340   1_554     S
C9    C7     1.38340   1_556     S
C9    C10    1.39304   1_556     S
C10   C9     1.39304   1_554     S
C9    C16    1.49522       .     S
C16   C9     1.49522       .     S
C10   H11    0.97002       .     S
H11   C10    0.97002       .     S
C12   H13    0.97954       .     S
H13   C12    0.97954       .     S
C12   H14    0.98047       .     S
H14   C12    0.98047       .     S
C12   H15    0.98021       .     S
H15   C12    0.98021       .     S
C16   H17    0.98004       .     S
H17   C16    0.98004       .     S
C16   H18    0.97987       .     S
H18   C16    0.97987       .     S
C16   H19    0.98039       .     S
H19   C16    0.98039       .     S
C20   N21    1.31409       .     S
N21   C20    1.31409       .     S
C20   N24    1.32421       .     S
N24   C20    1.32421       .     S
N21   H22    0.82739       .     S
H22   N21    0.82739       .     S
N21   H23    0.85441       .     S
H23   N21    0.85441       .     S
N24   H25    0.84565       .     S
H25   N24    0.84565       .     S
O1    S0     1.46235       .     S
S0    O1     1.46235       .     S
O2    S0     1.45541       .     S
S0    O2     1.45541       .     S
C3    S0     1.75719       .     S
S0    C3     1.75719       .     S
C4    C3     1.40261       .     S
C3    C4     1.40261       .     S
C10   C3     1.38101       .     S
C3    C10    1.38101       .     S
C5    C4     1.37604       .     S
C4    C5     1.37604       .     S
C12   C4     1.50283       .     S
C4    C12    1.50283       .     S
H6    C5     0.98133       .     S
C5    H6     0.98133       .     S
C7    C5     1.38875       .     S
C5    C7     1.38875       .     S
H8    C7     0.97332   1_556     S
C7    H8     0.97332   1_554     S
C9    C7     1.38340   1_556     S
C7    C9     1.38340   1_554     S
C10   C9     1.39304   1_554     S
C9    C10    1.39304   1_556     S
C16   C9     1.49522       .     S
C9    C16    1.49522       .     S
H11   C10    0.97002       .     S
C10   H11    0.97002       .     S
H13   C12    0.97954       .     S
C12   H13    0.97954       .     S
H14   C12    0.98047       .     S
C12   H14    0.98047       .     S
H15   C12    0.98021       .     S
C12   H15    0.98021       .     S
H17   C16    0.98004       .     S
C16   H17    0.98004       .     S
H18   C16    0.97987       .     S
C16   H18    0.97987       .     S
H19   C16    0.98039       .     S
C16   H19    0.98039       .     S
N21   C20    1.31409       .     S
C20   N21    1.31409       .     S
N24   C20    1.32421       .     S
C20   N24    1.32421       .     S
H22   N21    0.82739       .     S
N21   H22    0.82739       .     S
H23   N21    0.85441       .     S
N21   H23    0.85441       .     S
H25   N24    0.84565       .     S
N24   H25    0.84565       .     S
