data_I
_chemical_name_common  '/data/user2/wty/HOF/MOFDiff/mofdiff/data/test/2_g2mbs'
_cell_length_a 16.31500
_cell_length_b  7.51450
_cell_length_c  9.27730
_cell_angle_alpha 90.00000
_cell_angle_beta  90.00000
_cell_angle_gamma 90.00000
_space_group_name_H-M_alt      'P 1'


loop_
_space_group_symop_operation_xyz
  'x, y, z' 

loop_
_atom_site_label
_atom_site_fract_x
_atom_site_fract_y
_atom_site_fract_z
_atom_site_type_symbol
S0     0.13691     0.25  0.32014     S
O1      0.1242  0.08909  0.40583     O
C2     0.06287     0.25   0.1807     C
O3     0.21724     0.25   0.2498     O
C4     0.97867     0.25   0.2139     C
C5     0.92477     0.25   0.0978     C
H6      0.8674     0.25   0.1158     H
C7      0.9523     0.25   0.9573     C
H8      0.9138     0.25   0.8804     H
C9      0.0347     0.25   0.9276     C
H10     0.0532     0.25   0.8305     H
C11    0.09043     0.25   0.0392     C
H12     0.1475     0.25   0.0193     H
C13    0.94616     0.25   0.3653     C
H14     0.9736   0.1568   0.4212     H
H15      0.887   0.2272   0.3637     H
H16     0.9566    0.366   0.4099     H
N17    0.21582   0.0974  0.67954     N
H18     0.1785   0.0974    0.611     H
H19     0.2345    0.996   0.7138     H
N20    0.29871     0.25   0.8369     N
H21     0.3164   0.1486   0.8727     H
H22     0.3174   0.3514   0.8711     H
C23    0.24387     0.25   0.7311     C
loop_
_geom_bond_atom_site_label_1
_geom_bond_atom_site_label_2
_geom_bond_distance
_geom_bond_site_symmetry_2
_ccdc_geom_bond_type
H18   O1     2.10042       .     S
O1    H18    2.10042       .     S
S0    O1     1.46186       .     S
O1    S0     1.46186       .     S
S0    C2     1.76993       .     S
C2    S0     1.76993       .     S
S0    O3     1.46406       .     S
O3    S0     1.46406       .     S
C2    C4     1.40783   1_455     S
C4    C2     1.40783   1_655     S
C2    C11    1.38761       .     S
C11   C2     1.38761       .     S
C4    C5     1.39048       .     S
C5    C4     1.39048       .     S
C4    C13    1.50139       .     S
C13   C4     1.50139       .     S
C5    H6     0.95077       .     S
H6    C5     0.95077       .     S
C5    C7     1.37868   1_554     S
C7    C5     1.37868   1_556     S
C7    H8     0.95054       .     S
H8    C7     0.95054       .     S
C7    C9     1.37230   1_655     S
C9    C7     1.37230   1_455     S
C9    H10    0.95005       .     S
H10   C9     0.95005       .     S
C9    C11    1.37792   1_556     S
C11   C9     1.37792   1_554     S
C11   H12    0.94922       .     S
H12   C11    0.94922       .     S
C13   H14    0.97972       .     S
H14   C13    0.97972       .     S
C13   H15    0.98040       .     S
H15   C13    0.98040       .     S
C13   H16    0.97982       .     S
H16   C13    0.97982       .     S
N17   H18    0.88037       .     S
H18   N17    0.88037       .     S
N17   H19    0.88006   1_545     S
H19   N17    0.88006   1_565     S
N17   C23    1.32408       .     S
C23   N17    1.32408       .     S
N20   H21    0.87989       .     S
H21   N20    0.87989       .     S
N20   H22    0.87991       .     S
H22   N20    0.87991       .     S
N20   C23    1.32813       .     S
C23   N20    1.32813       .     S
O1    H18    2.10042       .     S
H18   O1     2.10042       .     S
O1    S0     1.46186       .     S
S0    O1     1.46186       .     S
C2    S0     1.76993       .     S
S0    C2     1.76993       .     S
O3    S0     1.46406       .     S
S0    O3     1.46406       .     S
C4    C2     1.40783   1_655     S
C2    C4     1.40783   1_455     S
C11   C2     1.38761       .     S
C2    C11    1.38761       .     S
C5    C4     1.39048       .     S
C4    C5     1.39048       .     S
C13   C4     1.50139       .     S
C4    C13    1.50139       .     S
H6    C5     0.95077       .     S
C5    H6     0.95077       .     S
C7    C5     1.37868   1_556     S
C5    C7     1.37868   1_554     S
H8    C7     0.95054       .     S
C7    H8     0.95054       .     S
C9    C7     1.37230   1_455     S
C7    C9     1.37230   1_655     S
H10   C9     0.95005       .     S
C9    H10    0.95005       .     S
C11   C9     1.37792   1_554     S
C9    C11    1.37792   1_556     S
H12   C11    0.94922       .     S
C11   H12    0.94922       .     S
H14   C13    0.97972       .     S
C13   H14    0.97972       .     S
H15   C13    0.98040       .     S
C13   H15    0.98040       .     S
H16   C13    0.97982       .     S
C13   H16    0.97982       .     S
H18   N17    0.88037       .     S
N17   H18    0.88037       .     S
H19   N17    0.88006   1_565     S
N17   H19    0.88006   1_545     S
C23   N17    1.32408       .     S
N17   C23    1.32408       .     S
H21   N20    0.87989       .     S
N20   H21    0.87989       .     S
H22   N20    0.87991       .     S
N20   H22    0.87991       .     S
C23   N20    1.32813       .     S
N20   C23    1.32813       .     S
