data_I
_chemical_name_common  '/data/user2/wty/HOF/MOFDiff/mofdiff/data/test/2_g2mbs059'
_cell_length_a  7.26200
_cell_length_b 18.06200
_cell_length_c 12.14370
_cell_angle_alpha 90.00000
_cell_angle_beta  90.06900
_cell_angle_gamma 90.00000
_space_group_name_H-M_alt      'P 1'


loop_
_space_group_symop_operation_xyz
  'x, y, z' 

loop_
_atom_site_label
_atom_site_fract_x
_atom_site_fract_y
_atom_site_fract_z
_atom_site_type_symbol
C0      0.1467   0.9402   0.0411     C
C1      0.1335   0.0186   0.0412     C
C2      0.9796   0.0507    0.986     C
C3      0.8503   0.0097   0.9372     C
C4      0.8613   0.9325   0.9377     C
H5      0.7686   0.9036    0.903     H
C6      0.0077   0.8988    0.989     C
H7      0.0152   0.8463   0.9893     H
C8      0.3053   0.9008    0.093     C
H9      0.2997   0.9068   0.1732     H
H10      0.421   0.9216   0.0654     H
H11     0.2993    0.848   0.0746     H
C12     0.2755   0.0644   0.0969     C
H13       0.37   0.0321   0.1287     H
H14     0.2179   0.0936   0.1555     H
H15     0.3324   0.0978   0.0432     H
C16     0.9636   0.1335   0.9889     C
H17     0.8595   0.1491    0.943     H
H18     0.0774   0.1556   0.9607     H
H19     0.9436   0.1498   0.0649     H
C20     0.6819   0.0437   0.8763     C
H21     0.6058   0.0711    0.929     H
H22     0.6087    0.004    0.843     H
H23     0.7249   0.0774   0.8186     H
S24    0.25762  0.17359  0.56696     S
O25    0.42636  0.18427  0.50302     O
C26     0.2486  0.07874  0.60427     C
O27       0.26  0.21559  0.66947     O
C28     0.2481   0.0233  0.52392     C
O29    0.09278  0.18922  0.50178     O
C30     0.2408  0.95012   0.5609     C
H31     0.2407   0.9112   0.5083     H
C32     0.2339  0.93257   0.6703     C
H33      0.229   0.8822   0.6925     H
C34      0.234  0.98782   0.7484     C
H35     0.2296   0.9755   0.8244     H
C36     0.2406  0.06164  0.71606     C
H37     0.2397      0.1   0.7696     H
C38     0.2563  0.03796   0.4019     C
H39     0.2374   0.9915   0.3617     H
H40     0.3771   0.0585    0.383     H
H41     0.1599   0.0734   0.3815     H
N42    0.26027  0.27634  0.12181     N
H43     0.1555    0.287   0.0889     H
H44     0.3654   0.2848   0.0881     H
N45     0.4177  0.23079  0.27095     N
H46     0.4177   0.2112   0.3373     H
H47     0.5226   0.2393    0.237     H
N48    0.10169  0.23496  0.27278     N
H49     0.9971   0.2457   0.2398     H
H50     0.1012   0.2159   0.3394     H
C51     0.2597   0.2476  0.22216     C
loop_
_geom_bond_atom_site_label_1
_geom_bond_atom_site_label_2
_geom_bond_distance
_geom_bond_site_symmetry_2
_ccdc_geom_bond_type
H46   O25    2.07128       .     S
O25   H46    2.07128       .     S
H50   O29    2.03092       .     S
O29   H50    2.03092       .     S
C0    C1     1.41930   1_565     S
C1    C0     1.41930   1_545     S
C0    C6     1.40600   1_554     S
C6    C0     1.40600   1_556     S
C0    C8     1.49280       .     S
C8    C0     1.49280       .     S
C1    C2     1.42575   1_454     S
C2    C1     1.42576   1_656     S
C1    C12    1.48444       .     S
C12   C1     1.48444       .     S
C2    C3     1.33414       .     S
C3    C2     1.33414       .     S
C2    C16    1.50046       .     S
C16   C2     1.50046       .     S
C3    C4     1.39669   1_545     S
C4    C3     1.39669   1_565     S
C3    C20    1.55481       .     S
C20   C3     1.55481       .     S
C4    H5     0.95002       .     S
H5    C4     0.95002       .     S
C4    C6     1.37379   1_655     S
C6    C4     1.37379   1_455     S
C6    H7     0.94983       .     S
H7    C6     0.94983       .     S
C8    H9     0.98083       .     S
H9    C8     0.98083       .     S
C8    H10    0.97985       .     S
H10   C8     0.97985       .     S
C8    H11    0.98046       .     S
H11   C8     0.98046       .     S
C12   H13    0.97969       .     S
H13   C12    0.97969       .     S
C12   H14    0.97992       .     S
H14   C12    0.97992       .     S
C12   H15    0.98009       .     S
H15   C12    0.98009       .     S
C16   H17    0.98008       .     S
H17   C16    0.98008       .     S
C16   H18    0.97993   1_655     S
H18   C16    0.97993   1_455     S
C16   H19    0.97973   1_556     S
H19   C16    0.97973   1_554     S
C20   H21    0.98018       .     S
H21   C20    0.98018       .     S
C20   H22    0.97967       .     S
H22   C20    0.97967       .     S
C20   H23    0.97954       .     S
H23   C20    0.97954       .     S
S24   O25    1.46424       .     S
O25   S24    1.46424       .     S
S24   C26    1.77331       .     S
C26   S24    1.77331       .     S
S24   O27    1.45787       .     S
O27   S24    1.45787       .     S
S24   O29    1.46181       .     S
O29   S24    1.46181       .     S
C26   C28    1.39814       .     S
C28   C26    1.39814       .     S
C26   C36    1.39352       .     S
C36   C26    1.39352       .     S
C28   C30    1.39701   1_545     S
C30   C28    1.39701   1_565     S
C28   C38    1.50650       .     S
C38   C28    1.50650       .     S
C30   H31    0.94983       .     S
H31   C30    0.94983       .     S
C30   C32    1.36679       .     S
C32   C30    1.36679       .     S
C32   H33    0.94957       .     S
H33   C32    0.94957       .     S
C32   C34    1.37672       .     S
C34   C32    1.37672       .     S
C34   H35    0.94994       .     S
H35   C34    0.94994       .     S
C34   C36    1.39082   1_565     S
C36   C34    1.39081   1_545     S
C36   H37    0.95017       .     S
H37   C36    0.95017       .     S
C38   H39    0.98040   1_545     S
H39   C38    0.98040   1_565     S
C38   H40    0.97998       .     S
H40   C38    0.97998       .     S
C38   H41    0.98020       .     S
H41   C38    0.98020       .     S
N42   H43    0.88030       .     S
H43   N42    0.88030       .     S
N42   H44    0.88008       .     S
H44   N42    0.88008       .     S
N42   C51    1.32459       .     S
C51   N42    1.32459       .     S
N45   H46    0.88000       .     S
H46   N45    0.88000       .     S
N45   H47    0.88015       .     S
H47   N45    0.88015       .     S
N45   C51    1.32594       .     S
C51   N45    1.32594       .     S
N48   H49    0.87988   1_455     S
H49   N48    0.87988   1_655     S
N48   H50    0.87923       .     S
H50   N48    0.87923       .     S
N48   C51    1.32226       .     S
C51   N48    1.32226       .     S
O25   H46    2.07128       .     S
H46   O25    2.07128       .     S
O29   H50    2.03092       .     S
H50   O29    2.03092       .     S
C1    C0     1.41930   1_545     S
C0    C1     1.41930   1_565     S
C6    C0     1.40600   1_556     S
C0    C6     1.40600   1_554     S
C8    C0     1.49280       .     S
C0    C8     1.49280       .     S
C2    C1     1.42576   1_656     S
C1    C2     1.42575   1_454     S
C12   C1     1.48444       .     S
C1    C12    1.48444       .     S
C3    C2     1.33414       .     S
C2    C3     1.33414       .     S
C16   C2     1.50046       .     S
C2    C16    1.50046       .     S
C4    C3     1.39669   1_565     S
C3    C4     1.39669   1_545     S
C20   C3     1.55481       .     S
C3    C20    1.55481       .     S
H5    C4     0.95002       .     S
C4    H5     0.95002       .     S
C6    C4     1.37379   1_455     S
C4    C6     1.37379   1_655     S
H7    C6     0.94983       .     S
C6    H7     0.94983       .     S
H9    C8     0.98083       .     S
C8    H9     0.98083       .     S
H10   C8     0.97985       .     S
C8    H10    0.97985       .     S
H11   C8     0.98046       .     S
C8    H11    0.98046       .     S
H13   C12    0.97969       .     S
C12   H13    0.97969       .     S
H14   C12    0.97992       .     S
C12   H14    0.97992       .     S
H15   C12    0.98009       .     S
C12   H15    0.98009       .     S
H17   C16    0.98008       .     S
C16   H17    0.98008       .     S
H18   C16    0.97993   1_455     S
C16   H18    0.97993   1_655     S
H19   C16    0.97973   1_554     S
C16   H19    0.97973   1_556     S
H21   C20    0.98018       .     S
C20   H21    0.98018       .     S
H22   C20    0.97967       .     S
C20   H22    0.97967       .     S
H23   C20    0.97954       .     S
C20   H23    0.97954       .     S
O25   S24    1.46424       .     S
S24   O25    1.46424       .     S
C26   S24    1.77331       .     S
S24   C26    1.77331       .     S
O27   S24    1.45787       .     S
S24   O27    1.45787       .     S
O29   S24    1.46181       .     S
S24   O29    1.46181       .     S
C28   C26    1.39814       .     S
C26   C28    1.39814       .     S
C36   C26    1.39352       .     S
C26   C36    1.39352       .     S
C30   C28    1.39701   1_565     S
C28   C30    1.39701   1_545     S
C38   C28    1.50650       .     S
C28   C38    1.50650       .     S
H31   C30    0.94983       .     S
C30   H31    0.94983       .     S
C32   C30    1.36679       .     S
C30   C32    1.36679       .     S
H33   C32    0.94957       .     S
C32   H33    0.94957       .     S
C34   C32    1.37672       .     S
C32   C34    1.37672       .     S
H35   C34    0.94994       .     S
C34   H35    0.94994       .     S
C36   C34    1.39081   1_545     S
C34   C36    1.39082   1_565     S
H37   C36    0.95017       .     S
C36   H37    0.95017       .     S
H39   C38    0.98040   1_565     S
C38   H39    0.98040   1_545     S
H40   C38    0.97998       .     S
C38   H40    0.97998       .     S
H41   C38    0.98020       .     S
C38   H41    0.98020       .     S
H43   N42    0.88030       .     S
N42   H43    0.88030       .     S
H44   N42    0.88008       .     S
N42   H44    0.88008       .     S
C51   N42    1.32459       .     S
N42   C51    1.32459       .     S
H46   N45    0.88000       .     S
N45   H46    0.88000       .     S
H47   N45    0.88015       .     S
N45   H47    0.88015       .     S
C51   N45    1.32594       .     S
N45   C51    1.32594       .     S
H49   N48    0.87988   1_655     S
N48   H49    0.87988   1_455     S
H50   N48    0.87923       .     S
N48   H50    0.87923       .     S
C51   N48    1.32226       .     S
N48   C51    1.32226       .     S
