data_I
_chemical_name_common  '/data/user2/wty/HOF/MOFDiff/mofdiff/data/test/2_g245tmbs'
_cell_length_a 18.51300
_cell_length_b  7.47980
_cell_length_c  9.39910
_cell_angle_alpha 90.00000
_cell_angle_beta  90.00000
_cell_angle_gamma 90.00000
_space_group_name_H-M_alt      'P 1'


loop_
_space_group_symop_operation_xyz
  'x, y, z' 

loop_
_atom_site_label
_atom_site_fract_x
_atom_site_fract_y
_atom_site_fract_z
_atom_site_type_symbol
S0     0.14541     0.25  0.13616     S
O1     0.20592     0.25  0.23616     O
C2     0.06515     0.25   0.2388     C
O3     0.14427   0.0885  0.04816     O
C4     0.07131     0.25   0.3865     C
H5       0.118     0.25   0.4286     H
C6     0.01065     0.25   0.4738     C
C7     0.94203     0.25    0.409     C
C8      0.9372     0.25    0.262     C
H9      0.8905     0.25     0.22     H
C10    0.99726     0.25    0.172     C
C11    0.01881     0.25   0.6337     C
H12     0.0066   0.1315   0.6711     H
H13     0.9863   0.3394   0.6751     H
H14     0.0688   0.2791   0.6587     H
C15     0.8741     0.25   0.4987     C
H16     0.8671   0.1313   0.5406     H
H17     0.8325   0.2797   0.4388     H
H18     0.8787    0.339   0.5747     H
C19    0.98643     0.25   0.0129     C
H20      0.942    0.315   0.9895     H
H21     0.9826   0.1265   0.9788     H
H22     0.0277   0.3085   0.9669     H
N23     0.2958     0.25   0.6286     N
H24     0.3122   0.1481   0.5946     H
H25      0.313   0.3519   0.5963     H
N26    0.21916  0.09623  0.77692     N
H27     0.2356   0.9944   0.7429     H
H28     0.1855   0.0961   0.8431     H
C29    0.24513     0.25   0.7283     C
loop_
_geom_bond_atom_site_label_1
_geom_bond_atom_site_label_2
_geom_bond_distance
_geom_bond_site_symmetry_2
_ccdc_geom_bond_type
H28   O3     2.07380   1_556     S
O3    H28    2.07380   1_554     S
S0    O1     1.46230       .     S
O1    S0     1.46230       .     S
S0    C2     1.77157       .     S
C2    S0     1.77157       .     S
S0    O3     1.46418       .     S
O3    S0     1.46418       .     S
C2    C4     1.39292       .     S
C4    C2     1.39292       .     S
C2    C10    1.40495   1_455     S
C10   C2     1.40495   1_655     S
C4    H5     0.95064       .     S
H5    C4     0.95064       .     S
C4    C6     1.39083       .     S
C6    C4     1.39083       .     S
C6    C7     1.40882   1_455     S
C7    C6     1.40882   1_655     S
C6    C11    1.51049       .     S
C11   C6     1.51049       .     S
C7    C8     1.38456       .     S
C8    C7     1.38456       .     S
C7    C15    1.51405       .     S
C15   C7     1.51405       .     S
C8    H9     0.95042       .     S
H9    C8     0.95042       .     S
C8    C10    1.39710       .     S
C10   C8     1.39710       .     S
C10   C19    1.50878       .     S
C19   C10    1.50878       .     S
C11   H12    0.97995       .     S
H12   C11    0.97995       .     S
C11   H13    0.98020   1_455     S
H13   C11    0.98020   1_655     S
C11   H14    0.97932       .     S
H14   C11    0.97932       .     S
C15   H16    0.97988       .     S
H16   C15    0.97988       .     S
C15   H17    0.97951       .     S
H17   C15    0.97951       .     S
C15   H18    0.98014       .     S
H18   C15    0.98014       .     S
C19   H20    0.98047   1_554     S
H20   C19    0.98047   1_556     S
C19   H21    0.98035   1_554     S
H21   C19    0.98035   1_556     S
C19   H22    0.98089   1_654     S
H22   C19    0.98089   1_456     S
N23   H24    0.88048       .     S
H24   N23    0.88048       .     S
N23   H25    0.88006       .     S
H25   N23    0.88006       .     S
N23   C29    1.32593       .     S
C29   N23    1.32593       .     S
N26   H27    0.88035   1_545     S
H27   N26    0.88035   1_565     S
N26   H28    0.88048       .     S
H28   N26    0.88048       .     S
N26   C29    1.32773       .     S
C29   N26    1.32773       .     S
O3    H28    2.07380   1_554     S
H28   O3     2.07380   1_556     S
O1    S0     1.46230       .     S
S0    O1     1.46230       .     S
C2    S0     1.77157       .     S
S0    C2     1.77157       .     S
O3    S0     1.46418       .     S
S0    O3     1.46418       .     S
C4    C2     1.39292       .     S
C2    C4     1.39292       .     S
C10   C2     1.40495   1_655     S
C2    C10    1.40495   1_455     S
H5    C4     0.95064       .     S
C4    H5     0.95064       .     S
C6    C4     1.39083       .     S
C4    C6     1.39083       .     S
C7    C6     1.40882   1_655     S
C6    C7     1.40882   1_455     S
C11   C6     1.51049       .     S
C6    C11    1.51049       .     S
C8    C7     1.38456       .     S
C7    C8     1.38456       .     S
C15   C7     1.51405       .     S
C7    C15    1.51405       .     S
H9    C8     0.95042       .     S
C8    H9     0.95042       .     S
C10   C8     1.39710       .     S
C8    C10    1.39710       .     S
C19   C10    1.50878       .     S
C10   C19    1.50878       .     S
H12   C11    0.97995       .     S
C11   H12    0.97995       .     S
H13   C11    0.98020   1_655     S
C11   H13    0.98020   1_455     S
H14   C11    0.97932       .     S
C11   H14    0.97932       .     S
H16   C15    0.97988       .     S
C15   H16    0.97988       .     S
H17   C15    0.97951       .     S
C15   H17    0.97951       .     S
H18   C15    0.98014       .     S
C15   H18    0.98014       .     S
H20   C19    0.98047   1_556     S
C19   H20    0.98047   1_554     S
H21   C19    0.98035   1_556     S
C19   H21    0.98035   1_554     S
H22   C19    0.98089   1_456     S
C19   H22    0.98089   1_654     S
H24   N23    0.88048       .     S
N23   H24    0.88048       .     S
H25   N23    0.88006       .     S
N23   H25    0.88006       .     S
C29   N23    1.32593       .     S
N23   C29    1.32593       .     S
H27   N26    0.88035   1_565     S
N26   H27    0.88035   1_545     S
H28   N26    0.88048       .     S
N26   H28    0.88048       .     S
C29   N26    1.32773       .     S
N26   C29    1.32773       .     S
