data_I
_chemical_name_common  '/data/user2/wty/HOF/MOFDiff/mofdiff/data/test/2_g2fbs'
_cell_length_a 12.56130
_cell_length_b  7.46860
_cell_length_c 22.99000
_cell_angle_alpha 90.00000
_cell_angle_beta  94.98400
_cell_angle_gamma 90.00000
_space_group_name_H-M_alt      'P 1'


loop_
_space_group_symop_operation_xyz
  'x, y, z' 

loop_
_atom_site_label
_atom_site_fract_x
_atom_site_fract_y
_atom_site_fract_z
_atom_site_type_symbol
S0     0.38204  0.13432  0.65385     S
F1     0.25599  0.91172  0.56448     F
O2     0.44046   0.2921  0.67578     O
C3     0.38407   0.1428  0.57699     C
O4     0.43591  0.96868  0.67226     O
C5     0.32097   0.0304  0.54055     C
O6     0.27041  0.13739  0.66621     O
C7      0.3232   0.0341  0.48085     C
H8      0.2794   0.9583   0.4573     H
C9      0.3913   0.1515  0.45656     C
H10     0.3934   0.1555   0.4162     H
C11     0.4562   0.2629  0.49162     C
H12     0.5029   0.3405    0.475     H
C13    0.45229   0.2599  0.55158     C
H14     0.4956   0.3367    0.575     H
N15    0.32878   0.6312  0.68764     N
H16     0.3634   0.7301   0.6857     H
H17     0.3622   0.5307   0.6877     H
N18    0.17242    0.788  0.69031     N
H19     0.1045   0.7897   0.6926     H
H20     0.2069   0.8868   0.6879     H
N21    0.17109   0.4811   0.6942     N
H22     0.1031   0.4822   0.6965     H
H23     0.2048   0.3809   0.6943     H
C24    0.22379   0.6337  0.69047     C
loop_
_geom_bond_atom_site_label_1
_geom_bond_atom_site_label_2
_geom_bond_distance
_geom_bond_site_symmetry_2
_ccdc_geom_bond_type
H16   O4     2.03691       .     S
O4    H16    2.03691       .     S
H17   O2     2.06491       .     S
O2    H17    2.06491       .     S
H20   O6     2.11115   1_565     S
O6    H20    2.11115   1_545     S
H23   O6     2.12046       .     S
O6    H23    2.12046       .     S
S0    O2     1.45500       .     S
O2    S0     1.45500       .     S
S0    C3     1.77054       .     S
C3    S0     1.77054       .     S
S0    O4     1.45522   1_545     S
O4    S0     1.45522   1_565     S
S0    O6     1.45489       .     S
O6    S0     1.45489       .     S
F1    C5     1.35373   1_565     S
C5    F1     1.35373   1_545     S
C3    C5     1.38543       .     S
C5    C3     1.38543       .     S
C3    C13    1.38833       .     S
C13   C3     1.38833       .     S
C5    C7     1.37550       .     S
C7    C5     1.37550       .     S
C7    H8     0.92982   1_545     S
H8    C7     0.92982   1_565     S
C7    C9     1.37673       .     S
C9    C7     1.37673       .     S
C9    H10    0.93102       .     S
H10   C9     0.93102       .     S
C9    C11    1.37562       .     S
C11   C9     1.37562       .     S
C11   H12    0.93003       .     S
H12   C11    0.93003       .     S
C11   C13    1.38379       .     S
C13   C11    1.38379       .     S
C13   H14    0.92950       .     S
H14   C13    0.92950       .     S
N15   H16    0.86027       .     S
H16   N15    0.86027       .     S
N15   H17    0.85996       .     S
H17   N15    0.85996       .     S
N15   C24    1.32618       .     S
C24   N15    1.32618       .     S
N18   H19    0.85943       .     S
H19   N18    0.85943       .     S
N18   H20    0.85984       .     S
H20   N18    0.85984       .     S
N18   C24    1.32061       .     S
C24   N18    1.32061       .     S
N21   H22    0.86029       .     S
H22   N21    0.86029       .     S
N21   H23    0.85975       .     S
H23   N21    0.85975       .     S
N21   C24    1.32453       .     S
C24   N21    1.32453       .     S
O4    H16    2.03691       .     S
H16   O4     2.03691       .     S
O2    H17    2.06491       .     S
H17   O2     2.06491       .     S
O6    H20    2.11115   1_545     S
H20   O6     2.11115   1_565     S
O6    H23    2.12046       .     S
H23   O6     2.12046       .     S
O2    S0     1.45500       .     S
S0    O2     1.45500       .     S
C3    S0     1.77054       .     S
S0    C3     1.77054       .     S
O4    S0     1.45522   1_565     S
S0    O4     1.45522   1_545     S
O6    S0     1.45489       .     S
S0    O6     1.45489       .     S
C5    F1     1.35373   1_545     S
F1    C5     1.35373   1_565     S
C5    C3     1.38543       .     S
C3    C5     1.38543       .     S
C13   C3     1.38833       .     S
C3    C13    1.38833       .     S
C7    C5     1.37550       .     S
C5    C7     1.37550       .     S
H8    C7     0.92982   1_565     S
C7    H8     0.92982   1_545     S
C9    C7     1.37673       .     S
C7    C9     1.37673       .     S
H10   C9     0.93102       .     S
C9    H10    0.93102       .     S
C11   C9     1.37562       .     S
C9    C11    1.37562       .     S
H12   C11    0.93003       .     S
C11   H12    0.93003       .     S
C13   C11    1.38379       .     S
C11   C13    1.38379       .     S
H14   C13    0.92950       .     S
C13   H14    0.92950       .     S
H16   N15    0.86027       .     S
N15   H16    0.86027       .     S
H17   N15    0.85996       .     S
N15   H17    0.85996       .     S
C24   N15    1.32618       .     S
N15   C24    1.32618       .     S
H19   N18    0.85943       .     S
N18   H19    0.85943       .     S
H20   N18    0.85984       .     S
N18   H20    0.85984       .     S
C24   N18    1.32061       .     S
N18   C24    1.32061       .     S
H22   N21    0.86029       .     S
N21   H22    0.86029       .     S
H23   N21    0.85975       .     S
N21   H23    0.85975       .     S
C24   N21    1.32453       .     S
N21   C24    1.32453       .     S
