data_I
_chemical_name_common  '/data/user2/wty/HOF/MOFDiff/mofdiff/data/test/2_g24dmbs'
_cell_length_a  7.39120
_cell_length_b 12.05640
_cell_length_c 14.03700
_cell_angle_alpha 90.00000
_cell_angle_beta  90.00000
_cell_angle_gamma 90.00000
_space_group_name_H-M_alt      'P 1'


loop_
_space_group_symop_operation_xyz
  'x, y, z' 

loop_
_atom_site_label
_atom_site_fract_x
_atom_site_fract_y
_atom_site_fract_z
_atom_site_type_symbol
S0         0.0  0.59382  0.26268     S
O1     0.16301  0.61526  0.20665     O
C2         0.0  0.45177  0.29293     C
C3         0.0  0.37053  0.22152     C
O4         0.0  0.65614  0.35165     O
C5         0.0  0.23032   0.3475     C
C6         0.0   0.4233  0.38858     C
H7         0.0   0.4797   0.4359     H
C8         0.0  0.26061  0.25149     C
H9         0.0   0.2037   0.2047     H
C10        0.0   0.3132  0.41514     C
H11        0.0   0.2942   0.4808     H
C12        0.0   0.3963  0.11666     C
H13     0.9754   0.3284   0.0806     H
H14     0.1185   0.4258   0.0982     H
H15     0.9062   0.4514   0.1029     H
C16        0.0   0.1086   0.3751     C
H17     0.8773   0.0861   0.3931     H
H18     0.0819   0.0972   0.4292     H
H19     0.0409   0.0639   0.3209     H
S20        0.5  0.09011  0.14226     S
C21        0.5  0.16366  0.25063     C
O22    0.33658  0.12199  0.09018     O
O23        0.5  0.97247  0.16604     O
C24        0.5   0.1042   0.3356     C
H25        0.5   0.0254   0.3342     H
C26        0.5   0.3318   0.3407     C
H27        0.5   0.4106   0.3432     H
C28        0.5  0.28105  0.25211     C
C29        0.5   0.2733   0.4257     C
C30        0.5   0.3338   0.5198     C
H31     0.6242   0.3548   0.5364     H
H32     0.4506   0.2854   0.5694     H
H33     0.4253   0.4007   0.5146     H
C34        0.5   0.1592   0.4223     C
H35        0.5   0.1178   0.4799     H
C36        0.5   0.3506   0.1635     C
H37     0.4598   0.4259   0.1791     H
H38     0.4176   0.3179   0.1166     H
H39     0.6226   0.3533    0.137     H
C40        0.5   0.7227  0.37516     C
N41     0.3449  0.75598  0.41247     N
H42     0.2419   0.7348   0.3868     H
H43     0.3447   0.7993   0.4629     H
N44        0.5  0.65766   0.2993     N
H45     0.6031   0.6366   0.2737     H
H46     0.3969   0.6355   0.2744     H
N47        0.0  0.00906  0.11628     N
H48     0.8969   0.0447   0.1095     H
H49     0.1031   0.0448   0.1098     H
C50        0.0  0.90189  0.13629     C
N51    0.15538  0.84867    0.146     N
H52     0.2582   0.8846   0.1391     H
H53     0.1559   0.7773   0.1593     H
loop_
_geom_bond_atom_site_label_1
_geom_bond_atom_site_label_2
_geom_bond_distance
_geom_bond_site_symmetry_2
_ccdc_geom_bond_type
H42   O4     2.08315       .     S
O4    H42    2.08315       .     S
H46   O1     1.98808       .     S
O1    H46    1.98808       .     S
H49   O22    1.97989       .     S
O22   H49    1.97989       .     S
H52   O23    2.11172       .     S
O23   H52    2.11172       .     S
H53   O1     2.06426       .     S
O1    H53    2.06426       .     S
S0    O1     1.46186       .     S
O1    S0     1.46186       .     S
S0    C2     1.76447       .     S
C2    S0     1.76447       .     S
S0    O4     1.45747       .     S
O4    S0     1.45747       .     S
C2    C3     1.40147       .     S
C3    C2     1.40147       .     S
C2    C6     1.38582       .     S
C6    C2     1.38582       .     S
C3    C8     1.39041       .     S
C8    C3     1.39041       .     S
C3    C12    1.50435       .     S
C12   C3     1.50435       .     S
C5    C8     1.39629       .     S
C8    C5     1.39629       .     S
C5    C10    1.37839       .     S
C10   C5     1.37839       .     S
C5    C16    1.51778       .     S
C16   C5     1.51778       .     S
C6    H7     0.95057       .     S
H7    C6     0.95057       .     S
C6    C10    1.37877       .     S
C10   C6     1.37877       .     S
C8    H9     0.94982       .     S
H9    C8     0.94982       .     S
C10   H11    0.94971       .     S
H11   C10    0.94971       .     S
C12   H13    0.97950   1_455     S
H13   C12    0.97950   1_655     S
C12   H14    0.98019       .     S
H14   C12    0.98019       .     S
C12   H15    0.97942   1_455     S
H15   C12    0.97942   1_655     S
C16   H17    0.97974   1_455     S
H17   C16    0.97974   1_655     S
C16   H18    0.98082       .     S
H18   C16    0.98082       .     S
C16   H19    0.98013       .     S
H19   C16    0.98013       .     S
S20   C21    1.76078       .     S
C21   S20    1.76078       .     S
S20   O22    1.46325       .     S
O22   S20    1.46325       .     S
S20   O23    1.45707   1_545     S
O23   S20    1.45707   1_565     S
C21   C24    1.39158       .     S
C24   C21    1.39158       .     S
C21   C28    1.41545       .     S
C28   C21    1.41545       .     S
C24   H25    0.95025       .     S
H25   C24    0.95025       .     S
C24   C34    1.38593       .     S
C34   C24    1.38593       .     S
C26   H27    0.95069       .     S
H27   C26    0.95069       .     S
C26   C28    1.38592       .     S
C28   C26    1.38592       .     S
C26   C29    1.38602       .     S
C29   C26    1.38602       .     S
C28   C36    1.50007       .     S
C36   C28    1.50007       .     S
C29   C30    1.50890       .     S
C30   C29    1.50890       .     S
C29   C34    1.37646       .     S
C34   C29    1.37646       .     S
C30   H31    0.98036       .     S
H31   C30    0.98036       .     S
C30   H32    0.97906       .     S
H32   C30    0.97906       .     S
C30   H33    0.98017       .     S
H33   C30    0.98017       .     S
C34   H35    0.95019       .     S
H35   C34    0.95019       .     S
C36   H37    0.98001       .     S
H37   C36    0.98001       .     S
C36   H38    0.97967       .     S
H38   C36    0.97967       .     S
C36   H39    0.98008       .     S
H39   C36    0.98008       .     S
C40   N41    1.32267       .     S
N41   C40    1.32267       .     S
C40   N44    1.32242       .     S
N44   C40    1.32242       .     S
N41   H42    0.88012       .     S
H42   N41    0.88012       .     S
N41   H43    0.87971       .     S
H43   N41    0.87971       .     S
N44   H45    0.87994       .     S
H45   N44    0.87994       .     S
N44   H46    0.87991       .     S
H46   N44    0.87991       .     S
N47   H48    0.87999   1_455     S
H48   N47    0.87999   1_655     S
N47   H49    0.88014       .     S
H49   N47    0.88014       .     S
N47   C50    1.32226   1_545     S
C50   N47    1.32226   1_565     S
C50   N51    1.32258       .     S
N51   C50    1.32258       .     S
N51   H52    0.88010       .     S
H52   N51    0.88010       .     S
N51   H53    0.88049       .     S
H53   N51    0.88049       .     S
O4    H42    2.08315       .     S
H42   O4     2.08315       .     S
O1    H46    1.98808       .     S
H46   O1     1.98808       .     S
O22   H49    1.97989       .     S
H49   O22    1.97989       .     S
O23   H52    2.11172       .     S
H52   O23    2.11172       .     S
O1    H53    2.06426       .     S
H53   O1     2.06426       .     S
O1    S0     1.46186       .     S
S0    O1     1.46186       .     S
C2    S0     1.76447       .     S
S0    C2     1.76447       .     S
O4    S0     1.45747       .     S
S0    O4     1.45747       .     S
C3    C2     1.40147       .     S
C2    C3     1.40147       .     S
C6    C2     1.38582       .     S
C2    C6     1.38582       .     S
C8    C3     1.39041       .     S
C3    C8     1.39041       .     S
C12   C3     1.50435       .     S
C3    C12    1.50435       .     S
C8    C5     1.39629       .     S
C5    C8     1.39629       .     S
C10   C5     1.37839       .     S
C5    C10    1.37839       .     S
C16   C5     1.51778       .     S
C5    C16    1.51778       .     S
H7    C6     0.95057       .     S
C6    H7     0.95057       .     S
C10   C6     1.37877       .     S
C6    C10    1.37877       .     S
H9    C8     0.94982       .     S
C8    H9     0.94982       .     S
H11   C10    0.94971       .     S
C10   H11    0.94971       .     S
H13   C12    0.97950   1_655     S
C12   H13    0.97950   1_455     S
H14   C12    0.98019       .     S
C12   H14    0.98019       .     S
H15   C12    0.97942   1_655     S
C12   H15    0.97942   1_455     S
H17   C16    0.97974   1_655     S
C16   H17    0.97974   1_455     S
H18   C16    0.98082       .     S
C16   H18    0.98082       .     S
H19   C16    0.98013       .     S
C16   H19    0.98013       .     S
C21   S20    1.76078       .     S
S20   C21    1.76078       .     S
O22   S20    1.46325       .     S
S20   O22    1.46325       .     S
O23   S20    1.45707   1_565     S
S20   O23    1.45707   1_545     S
C24   C21    1.39158       .     S
C21   C24    1.39158       .     S
C28   C21    1.41545       .     S
C21   C28    1.41545       .     S
H25   C24    0.95025       .     S
C24   H25    0.95025       .     S
C34   C24    1.38593       .     S
C24   C34    1.38593       .     S
H27   C26    0.95069       .     S
C26   H27    0.95069       .     S
C28   C26    1.38592       .     S
C26   C28    1.38592       .     S
C29   C26    1.38602       .     S
C26   C29    1.38602       .     S
C36   C28    1.50007       .     S
C28   C36    1.50007       .     S
C30   C29    1.50890       .     S
C29   C30    1.50890       .     S
C34   C29    1.37646       .     S
C29   C34    1.37646       .     S
H31   C30    0.98036       .     S
C30   H31    0.98036       .     S
H32   C30    0.97906       .     S
C30   H32    0.97906       .     S
H33   C30    0.98017       .     S
C30   H33    0.98017       .     S
H35   C34    0.95019       .     S
C34   H35    0.95019       .     S
H37   C36    0.98001       .     S
C36   H37    0.98001       .     S
H38   C36    0.97967       .     S
C36   H38    0.97967       .     S
H39   C36    0.98008       .     S
C36   H39    0.98008       .     S
N41   C40    1.32267       .     S
C40   N41    1.32267       .     S
N44   C40    1.32242       .     S
C40   N44    1.32242       .     S
H42   N41    0.88012       .     S
N41   H42    0.88012       .     S
H43   N41    0.87971       .     S
N41   H43    0.87971       .     S
H45   N44    0.87994       .     S
N44   H45    0.87994       .     S
H46   N44    0.87991       .     S
N44   H46    0.87991       .     S
H48   N47    0.87999   1_655     S
N47   H48    0.87999   1_455     S
H49   N47    0.88014       .     S
N47   H49    0.88014       .     S
C50   N47    1.32226   1_565     S
N47   C50    1.32226   1_545     S
N51   C50    1.32258       .     S
C50   N51    1.32258       .     S
H52   N51    0.88010       .     S
N51   H52    0.88010       .     S
H53   N51    0.88049       .     S
N51   H53    0.88049       .     S
