data_I
_chemical_name_common  '/data/user2/wty/HOF/MOFDiff/mofdiff/data/test/2_g234tmbs'
_cell_length_a 20.04400
_cell_length_b  7.46400
_cell_length_c  8.63000
_cell_angle_alpha 90.00000
_cell_angle_beta  90.00000
_cell_angle_gamma 90.00000
_space_group_name_H-M_alt      'P 1'


loop_
_space_group_symop_operation_xyz
  'x, y, z' 

loop_
_atom_site_label
_atom_site_fract_x
_atom_site_fract_y
_atom_site_fract_z
_atom_site_type_symbol
S0     0.35435     0.25  0.38989     S
O1     0.36459    0.088   0.4824     O
O2     0.28886     0.25   0.3163     O
C3     0.48249     0.25   0.2703     C
C4     0.41394     0.25   0.2397     C
C5      0.3902     0.25   0.0883     C
H6      0.3436     0.25   0.0687     H
C7      0.4348     0.25   0.9671     C
H8      0.4185     0.25   0.8638     H
C9     0.52748     0.25   0.1449     C
C10    0.60099     0.25   0.1733     C
H11     0.6238   0.3077   0.0861     H
H12     0.6168   0.1263   0.1836     H
H13     0.6107    0.316   0.2689     H
C14     0.5034     0.25   0.9926     C
C15    0.51037     0.25   0.4307     C
H16     0.5359   0.3603   0.4476     H
H17     0.5397   0.1462    0.444     H
H18     0.4738     0.25   0.5058     H
C19     0.5503     0.25   0.8557     C
H20     0.5777   0.3587   0.8579     H
H21     0.5244     0.25   0.7594     H
H22     0.5793   0.1444   0.8608     H
N23    0.19342     0.25   0.8928     N
H24     0.1773   0.3521   0.9274     H
H25     0.1764   0.1479   0.9252     H
N26    0.26854   0.0969   0.7437     N
H27     0.2525   0.9946   0.7782     H
H28     0.3016   0.0972   0.6767     H
C29    0.24292     0.25   0.7926     C
loop_
_geom_bond_atom_site_label_1
_geom_bond_atom_site_label_2
_geom_bond_distance
_geom_bond_site_symmetry_2
_ccdc_geom_bond_type
H28   O1     2.10012       .     S
O1    H28    2.10012       .     S
S0    O1     1.46342       .     S
O1    S0     1.46342       .     S
S0    O2     1.45824       .     S
O2    S0     1.45824       .     S
S0    C4     1.76256       .     S
C4    S0     1.76256       .     S
C3    C4     1.39916       .     S
C4    C3     1.39916       .     S
C3    C9     1.40868       .     S
C9    C3     1.40868       .     S
C3    C15    1.49280       .     S
C15   C3     1.49280       .     S
C4    C5     1.39053       .     S
C5    C4     1.39053       .     S
C5    H6     0.94924       .     S
H6    C5     0.94924       .     S
C5    C7     1.37593   1_554     S
C7    C5     1.37593   1_556     S
C7    H8     0.94946       .     S
H8    C7     0.94946       .     S
C7    C14    1.39252       .     S
C14   C7     1.39252       .     S
C9    C10    1.49368       .     S
C10   C9     1.49368       .     S
C9    C14    1.40017   1_554     S
C14   C9     1.40017   1_556     S
C10   H11    0.98022       .     S
H11   C10    0.98022       .     S
C10   H12    0.98020       .     S
H12   C10    0.98020       .     S
C10   H13    0.98042       .     S
H13   C10    0.98042       .     S
C14   C19    1.50981       .     S
C19   C14    1.50981       .     S
C15   H16    0.98027       .     S
H16   C15    0.98027       .     S
C15   H17    0.97931       .     S
H17   C15    0.97931       .     S
C15   H18    0.97844       .     S
H18   C15    0.97844       .     S
C19   H20    0.97993       .     S
H20   C19    0.97993       .     S
C19   H21    0.97989       .     S
H21   C19    0.97989       .     S
C19   H22    0.98034       .     S
H22   C19    0.98034       .     S
N23   H24    0.87995       .     S
H24   N23    0.87995       .     S
N23   H25    0.88052       .     S
H25   N23    0.88052       .     S
N23   C29    1.31612       .     S
C29   N23    1.31612       .     S
N26   H27    0.88037   1_545     S
H27   N26    0.88037   1_565     S
N26   H28    0.87946       .     S
H28   N26    0.87946       .     S
N26   C29    1.32199       .     S
C29   N26    1.32199       .     S
O1    H28    2.10012       .     S
H28   O1     2.10012       .     S
O1    S0     1.46342       .     S
S0    O1     1.46342       .     S
O2    S0     1.45824       .     S
S0    O2     1.45824       .     S
C4    S0     1.76256       .     S
S0    C4     1.76256       .     S
C4    C3     1.39916       .     S
C3    C4     1.39916       .     S
C9    C3     1.40868       .     S
C3    C9     1.40868       .     S
C15   C3     1.49280       .     S
C3    C15    1.49280       .     S
C5    C4     1.39053       .     S
C4    C5     1.39053       .     S
H6    C5     0.94924       .     S
C5    H6     0.94924       .     S
C7    C5     1.37593   1_556     S
C5    C7     1.37593   1_554     S
H8    C7     0.94946       .     S
C7    H8     0.94946       .     S
C14   C7     1.39252       .     S
C7    C14    1.39252       .     S
C10   C9     1.49368       .     S
C9    C10    1.49368       .     S
C14   C9     1.40017   1_556     S
C9    C14    1.40017   1_554     S
H11   C10    0.98022       .     S
C10   H11    0.98022       .     S
H12   C10    0.98020       .     S
C10   H12    0.98020       .     S
H13   C10    0.98042       .     S
C10   H13    0.98042       .     S
C19   C14    1.50981       .     S
C14   C19    1.50981       .     S
H16   C15    0.98027       .     S
C15   H16    0.98027       .     S
H17   C15    0.97931       .     S
C15   H17    0.97931       .     S
H18   C15    0.97844       .     S
C15   H18    0.97844       .     S
H20   C19    0.97993       .     S
C19   H20    0.97993       .     S
H21   C19    0.97989       .     S
C19   H21    0.97989       .     S
H22   C19    0.98034       .     S
C19   H22    0.98034       .     S
H24   N23    0.87995       .     S
N23   H24    0.87995       .     S
H25   N23    0.88052       .     S
N23   H25    0.88052       .     S
C29   N23    1.31612       .     S
N23   C29    1.31612       .     S
H27   N26    0.88037   1_565     S
N26   H27    0.88037   1_545     S
H28   N26    0.87946       .     S
N26   H28    0.87946       .     S
C29   N26    1.32199       .     S
N26   C29    1.32199       .     S
