data_I
_chemical_name_common  '/data/user2/wty/HOF/MOFDiff/mofdiff/data/test/2_g34dmbs'
_cell_length_a 18.69500
_cell_length_b  7.39070
_cell_length_c  8.54010
_cell_angle_alpha 90.00000
_cell_angle_beta  90.00000
_cell_angle_gamma 90.00000
_space_group_name_H-M_alt      'P 1'


loop_
_space_group_symop_operation_xyz
  'x, y, z' 

loop_
_atom_site_label
_atom_site_fract_x
_atom_site_fract_y
_atom_site_fract_z
_atom_site_type_symbol
S0     0.36598     0.25  0.89862     S
O1     0.30208     0.25   0.8008     O
C2       0.441     0.25   0.7736     C
O3     0.37134   0.0875   0.9942     O
C4     0.43181     0.25   0.6137     C
H5      0.3849     0.25   0.5711     H
C6      0.4918     0.25   0.5122     C
C7      0.5595     0.25   0.5794     C
C8      0.5674     0.25   0.7406     C
H9      0.6142     0.25    0.784     H
C10     0.5093     0.25   0.8401     C
H11     0.5155     0.25   0.9505     H
C12     0.4809     0.25   0.3401     C
H13     0.5143   0.3352   0.2914     H
H14     0.4317   0.2866   0.3164     H
H15     0.4895   0.1282   0.2989     H
C16     0.6246     0.25   0.4757     C
H17      0.667   0.2212   0.5383     H
H18     0.6304   0.3697    0.428     H
H19     0.6188    0.159   0.3932     H
N20    0.19173     0.25   0.4086     N
H21     0.1735   0.1469   0.4413     H
H22     0.1729   0.3531   0.4395     H
N23    0.27574   0.0953   0.2665     N
H24     0.2578   0.9918   0.2988     H
H25     0.3128    0.096   0.2028     H
C26     0.2471     0.25   0.3136     C
loop_
_geom_bond_atom_site_label_1
_geom_bond_atom_site_label_2
_geom_bond_distance
_geom_bond_site_symmetry_2
_ccdc_geom_bond_type
H25   O3     2.09172   1_554     S
O3    H25    2.09172   1_556     S
S0    O1     1.45773       .     S
O1    S0     1.45773       .     S
S0    C2     1.76266       .     S
C2    S0     1.76266       .     S
S0    O3     1.45558       .     S
O3    S0     1.45558       .     S
C2    C4     1.37633       .     S
C4    C2     1.37633       .     S
C2    C10    1.39747       .     S
C10   C2     1.39747       .     S
C4    H5     0.94945       .     S
H5    C4     0.94945       .     S
C4    C6     1.41745       .     S
C6    C4     1.41745       .     S
C6    C7     1.38969       .     S
C7    C6     1.38969       .     S
C6    C12    1.48381       .     S
C12   C6     1.48381       .     S
C7    C8     1.38456       .     S
C8    C7     1.38456       .     S
C7    C16    1.50516       .     S
C16   C7     1.50516       .     S
C8    H9     0.95020       .     S
H9    C8     0.95020       .     S
C8    C10    1.37907       .     S
C10   C8     1.37907       .     S
C10   H11    0.94993       .     S
H11   C10    0.94993       .     S
C12   H13    0.97948       .     S
H13   C12    0.97948       .     S
C12   H14    0.97988       .     S
H14   C12    0.97988       .     S
C12   H15    0.97979       .     S
H15   C12    0.97979       .     S
C16   H17    0.97951       .     S
H17   C16    0.97951       .     S
C16   H18    0.97997       .     S
H18   C16    0.97997       .     S
C16   H19    0.98004       .     S
H19   C16    0.98004       .     S
N20   H21    0.88020       .     S
H21   N20    0.88020       .     S
N20   H22    0.87987       .     S
H22   N20    0.87987       .     S
N20   C26    1.31520       .     S
C26   N20    1.31520       .     S
N23   H24    0.87960   1_545     S
H24   N23    0.87961   1_565     S
N23   H25    0.88090       .     S
H25   N23    0.88090       .     S
N23   C26    1.32503       .     S
C26   N23    1.32503       .     S
O3    H25    2.09172   1_556     S
H25   O3     2.09172   1_554     S
O1    S0     1.45773       .     S
S0    O1     1.45773       .     S
C2    S0     1.76266       .     S
S0    C2     1.76266       .     S
O3    S0     1.45558       .     S
S0    O3     1.45558       .     S
C4    C2     1.37633       .     S
C2    C4     1.37633       .     S
C10   C2     1.39747       .     S
C2    C10    1.39747       .     S
H5    C4     0.94945       .     S
C4    H5     0.94945       .     S
C6    C4     1.41745       .     S
C4    C6     1.41745       .     S
C7    C6     1.38969       .     S
C6    C7     1.38969       .     S
C12   C6     1.48381       .     S
C6    C12    1.48381       .     S
C8    C7     1.38456       .     S
C7    C8     1.38456       .     S
C16   C7     1.50516       .     S
C7    C16    1.50516       .     S
H9    C8     0.95020       .     S
C8    H9     0.95020       .     S
C10   C8     1.37907       .     S
C8    C10    1.37907       .     S
H11   C10    0.94993       .     S
C10   H11    0.94993       .     S
H13   C12    0.97948       .     S
C12   H13    0.97948       .     S
H14   C12    0.97988       .     S
C12   H14    0.97988       .     S
H15   C12    0.97979       .     S
C12   H15    0.97979       .     S
H17   C16    0.97951       .     S
C16   H17    0.97951       .     S
H18   C16    0.97997       .     S
C16   H18    0.97997       .     S
H19   C16    0.98004       .     S
C16   H19    0.98004       .     S
H21   N20    0.88020       .     S
N20   H21    0.88020       .     S
H22   N20    0.87987       .     S
N20   H22    0.87987       .     S
C26   N20    1.31520       .     S
N20   C26    1.31520       .     S
H24   N23    0.87961   1_565     S
N23   H24    0.87960   1_545     S
H25   N23    0.88090       .     S
N23   H25    0.88090       .     S
C26   N23    1.32503       .     S
N23   C26    1.32503       .     S
