data_I
_chemical_name_common  '/data/user2/wty/HOF/MOFDiff/mofdiff/data/test/2_g3mbs5'
_cell_length_a  7.44390
_cell_length_b 11.64540
_cell_length_c 21.07030
_cell_angle_alpha 90.00000
_cell_angle_beta  90.00000
_cell_angle_gamma 90.00000
_space_group_name_H-M_alt      'P 1'


loop_
_space_group_symop_operation_xyz
  'x, y, z' 

loop_
_atom_site_label
_atom_site_fract_x
_atom_site_fract_y
_atom_site_fract_z
_atom_site_type_symbol
C0      0.2151   0.8786   0.8864     C
C1      0.8958   0.7475   0.8923     C
C2      0.2006   0.7815   0.9256     C
H3      0.2999   0.7587   0.9509     H
C4      0.7343   0.6732   0.8925     C
H5      0.7623   0.6001   0.8717     H
H6      0.6367   0.7115   0.8696     H
H7       0.697   0.6587   0.9364     H
C8      0.9076    0.847   0.8551     C
H9      0.8065   0.8716   0.8312     H
C10     0.0431   0.7189   0.9275     C
H11      0.037   0.6535   0.9544     H
C12     0.0639   0.9091    0.853     C
H13     0.0679   0.9761   0.8274     H
C14     0.3877   0.9446    0.881     C
H15     0.4748   0.8998   0.8565     H
H16     0.4358   0.9593   0.9235     H
H17     0.3651   0.0179   0.8595     H
S18    0.75482  0.12984  0.17755     S
O19     0.7431  0.24898  0.19875     O
O20       0.59   0.0658  0.18783     O
O21     0.9093     0.07  0.20433     O
C22     0.7835   0.2366  0.06222     C
H23     0.7597    0.306   0.0844     H
C24     0.7916   0.1339  0.09484     C
C25     0.8417   0.1344    0.965     C
H26     0.8578   0.1338   0.9203     H
C27     0.8106   0.2386   0.9962     C
C28     0.8493   0.0321   0.9983     C
H29     0.8719   0.9624   0.9763     H
C30     0.8243   0.0304   0.0639     C
H31     0.8293   0.9603   0.0868     H
C32     0.8056   0.3508   0.9612     C
H33     0.9285   0.3771   0.9533     H
H34     0.7419    0.408   0.9869     H
H35      0.743   0.3405   0.9207     H
C36     0.7521   0.7873  0.26442     C
N37     0.9065    0.837  0.24993     N
H38     0.0084   0.8013   0.2576     H
H39     0.9074   0.9059   0.2327     H
N40     0.7482   0.6845  0.29026     N
H41     0.8493   0.6479   0.2981     H
H42     0.6447   0.6523   0.2997     H
N43     0.5991   0.8439  0.25287     N
H44     0.4952   0.8123   0.2626     H
H45     0.6023   0.9126   0.2356     H
loop_
_geom_bond_atom_site_label_1
_geom_bond_atom_site_label_2
_geom_bond_distance
_geom_bond_site_symmetry_2
_ccdc_geom_bond_type
H39   O21    2.00237   1_565     S
O21   H39    2.00237   1_545     S
H45   O20    2.05047   1_565     S
O20   H45    2.05047   1_545     S
C0    C2     1.40445       .     S
C2    C0     1.40445       .     S
C0    C12    1.37412       .     S
C12   C0     1.37412       .     S
C0    C14    1.50148       .     S
C14   C0     1.50148       .     S
C1    C4     1.48120       .     S
C4    C1     1.48120       .     S
C1    C8     1.40168       .     S
C8    C1     1.40168       .     S
C1    C10    1.36502   1_655     S
C10   C1     1.36502   1_455     S
C2    H3     0.94924       .     S
H3    C2     0.94924       .     S
C2    C10    1.38116       .     S
C10   C2     1.38116       .     S
C4    H5     0.97989       .     S
H5    C4     0.97989       .     S
C4    H6     0.97958       .     S
H6    C4     0.97958       .     S
C4    H7     0.98041       .     S
H7    C4     0.98041       .     S
C8    H9     0.94976       .     S
H9    C8     0.94976       .     S
C8    C12    1.37063   1_655     S
C12   C8     1.37063   1_455     S
C10   H11    0.95045       .     S
H11   C10    0.95045       .     S
C12   H13    0.94901       .     S
H13   C12    0.94901       .     S
C14   H15    0.97931       .     S
H15   C14    0.97931       .     S
C14   H16    0.97949       .     S
H16   C14    0.97949       .     S
C14   H17    0.98090   1_565     S
H17   C14    0.98090   1_545     S
S18   O19    1.46018       .     S
O19   S18    1.46018       .     S
S18   O20    1.45203       .     S
O20   S18    1.45203       .     S
S18   O21    1.45820       .     S
O21   S18    1.45820       .     S
S18   C24    1.76473       .     S
C24   S18    1.76473       .     S
C22   H23    0.95024       .     S
H23   C22    0.95024       .     S
C22   C24    1.38073       .     S
C24   C22    1.38073       .     S
C22   C27    1.40580   1_554     S
C27   C22    1.40580   1_556     S
C24   C30    1.39176       .     S
C30   C24    1.39176       .     S
C25   H26    0.94946       .     S
H26   C25    0.94946       .     S
C25   C27    1.39937       .     S
C27   C25    1.39937       .     S
C25   C28    1.38375       .     S
C28   C25    1.38375       .     S
C27   C32    1.50082       .     S
C32   C27    1.50082       .     S
C28   H29    0.94974   1_545     S
H29   C28    0.94974   1_565     S
C28   C30    1.39482   1_556     S
C30   C28    1.39482   1_554     S
C30   H31    0.94901   1_545     S
H31   C30    0.94901   1_565     S
C32   H33    0.97902       .     S
H33   C32    0.97902       .     S
C32   H34    0.98071       .     S
H34   C32    0.98071       .     S
C32   H35    0.97966       .     S
H35   C32    0.97966       .     S
C36   N37    1.32256       .     S
N37   C36    1.32256       .     S
C36   N40    1.31546       .     S
N40   C36    1.31546       .     S
C36   N43    1.33821       .     S
N43   C36    1.33821       .     S
N37   H38    0.87996   1_655     S
H38   N37    0.87996   1_455     S
N37   H39    0.88070       .     S
H39   N37    0.88070       .     S
N40   H41    0.88053       .     S
H41   N40    0.88053       .     S
N40   H42    0.87964       .     S
H42   N40    0.87964       .     S
N43   H44    0.88070       .     S
H44   N43    0.88070       .     S
N43   H45    0.87923       .     S
H45   N43    0.87923       .     S
O21   H39    2.00237   1_545     S
H39   O21    2.00237   1_565     S
O20   H45    2.05047   1_545     S
H45   O20    2.05047   1_565     S
C2    C0     1.40445       .     S
C0    C2     1.40445       .     S
C12   C0     1.37412       .     S
C0    C12    1.37412       .     S
C14   C0     1.50148       .     S
C0    C14    1.50148       .     S
C4    C1     1.48120       .     S
C1    C4     1.48120       .     S
C8    C1     1.40168       .     S
C1    C8     1.40168       .     S
C10   C1     1.36502   1_455     S
C1    C10    1.36502   1_655     S
H3    C2     0.94924       .     S
C2    H3     0.94924       .     S
C10   C2     1.38116       .     S
C2    C10    1.38116       .     S
H5    C4     0.97989       .     S
C4    H5     0.97989       .     S
H6    C4     0.97958       .     S
C4    H6     0.97958       .     S
H7    C4     0.98041       .     S
C4    H7     0.98041       .     S
H9    C8     0.94976       .     S
C8    H9     0.94976       .     S
C12   C8     1.37063   1_455     S
C8    C12    1.37063   1_655     S
H11   C10    0.95045       .     S
C10   H11    0.95045       .     S
H13   C12    0.94901       .     S
C12   H13    0.94901       .     S
H15   C14    0.97931       .     S
C14   H15    0.97931       .     S
H16   C14    0.97949       .     S
C14   H16    0.97949       .     S
H17   C14    0.98090   1_545     S
C14   H17    0.98090   1_565     S
O19   S18    1.46018       .     S
S18   O19    1.46018       .     S
O20   S18    1.45203       .     S
S18   O20    1.45203       .     S
O21   S18    1.45820       .     S
S18   O21    1.45820       .     S
C24   S18    1.76473       .     S
S18   C24    1.76473       .     S
H23   C22    0.95024       .     S
C22   H23    0.95024       .     S
C24   C22    1.38073       .     S
C22   C24    1.38073       .     S
C27   C22    1.40580   1_556     S
C22   C27    1.40580   1_554     S
C30   C24    1.39176       .     S
C24   C30    1.39176       .     S
H26   C25    0.94946       .     S
C25   H26    0.94946       .     S
C27   C25    1.39937       .     S
C25   C27    1.39937       .     S
C28   C25    1.38375       .     S
C25   C28    1.38375       .     S
C32   C27    1.50082       .     S
C27   C32    1.50082       .     S
H29   C28    0.94974   1_565     S
C28   H29    0.94974   1_545     S
C30   C28    1.39482   1_554     S
C28   C30    1.39482   1_556     S
H31   C30    0.94901   1_565     S
C30   H31    0.94901   1_545     S
H33   C32    0.97902       .     S
C32   H33    0.97902       .     S
H34   C32    0.98071       .     S
C32   H34    0.98071       .     S
H35   C32    0.97966       .     S
C32   H35    0.97966       .     S
N37   C36    1.32256       .     S
C36   N37    1.32256       .     S
N40   C36    1.31546       .     S
C36   N40    1.31546       .     S
N43   C36    1.33821       .     S
C36   N43    1.33821       .     S
H38   N37    0.87996   1_455     S
N37   H38    0.87996   1_655     S
H39   N37    0.88070       .     S
N37   H39    0.88070       .     S
H41   N40    0.88053       .     S
N40   H41    0.88053       .     S
H42   N40    0.87964       .     S
N40   H42    0.87964       .     S
H44   N43    0.88070       .     S
N43   H44    0.88070       .     S
H45   N43    0.87923       .     S
N43   H45    0.87923       .     S
