data_I
_chemical_name_common  '/data/user2/wty/HOF/MOFDiff/mofdiff/data/test/2_g3fbs'
_cell_length_a  7.16900
_cell_length_b  7.30400
_cell_length_c 11.53200
_cell_angle_alpha 72.37700
_cell_angle_beta  85.07500
_cell_angle_gamma 62.94400
_space_group_name_H-M_alt      'P 1'


loop_
_space_group_symop_operation_xyz
  'x, y, z' 

loop_
_atom_site_label
_atom_site_fract_x
_atom_site_fract_y
_atom_site_fract_z
_atom_site_type_symbol
S0     0.16616  0.99478  0.80072     S
F1      0.6866   0.3647  0.41583     F
O2     0.06108  0.85776  0.83543     O
C3      0.1153   0.1183  0.64121     C
O4     0.07511   0.1725  0.85458     O
C5      0.9166    0.188   0.5905     C
H6      0.8111   0.1634   0.6386     H
O7     0.39345  0.87555  0.82265     O
C8      0.8792   0.2944  0.46729     C
C9      0.0273   0.3328  0.39442     C
H10     0.9956    0.406   0.3097     H
C11     0.2226    0.263  0.44672     C
H12     0.3267   0.2888   0.3978     H
C13     0.2686    0.155  0.57068     C
H14     0.4036   0.1069   0.6066     H
N15     0.3119   0.3891  0.88862     N
H16     0.2466    0.523    0.891     H
H17     0.2403   0.3169   0.8916     H
N18     0.6164   0.0929    0.879     N
H19     0.7536   0.0297    0.875     H
H20     0.5443   0.0213    0.882     H
N21     0.6265   0.4046  0.87592     N
H22     0.7636    0.342   0.8719     H
H23     0.5609   0.5393   0.8769     H
C24     0.5184    0.296  0.88046     C
loop_
_geom_bond_atom_site_label_1
_geom_bond_atom_site_label_2
_geom_bond_distance
_geom_bond_site_symmetry_2
_ccdc_geom_bond_type
H16   O2     2.09695       .     S
O2    H16    2.09695       .     S
H17   O4     2.04763       .     S
O4    H17    2.04763       .     S
H19   O2     2.07372   1_645     S
O2    H19    2.07372   1_465     S
H20   O7     2.09448   1_545     S
O7    H20    2.09448   1_565     S
H22   O4     2.02924   1_655     S
O4    H22    2.02924   1_455     S
H23   O7     2.09302       .     S
O7    H23    2.09302       .     S
S0    O2     1.45630       .     S
O2    S0     1.45630       .     S
S0    C3     1.77245   1_565     S
C3    S0     1.77245   1_545     S
S0    O4     1.46444   1_565     S
O4    S0     1.46444   1_545     S
S0    O7     1.45737       .     S
O7    S0     1.45737       .     S
F1    C8     1.35407       .     S
C8    F1     1.35407       .     S
C3    C5     1.39045   1_455     S
C5    C3     1.39045   1_655     S
C3    C13    1.38698       .     S
C13   C3     1.38698       .     S
C5    H6     0.95039       .     S
H6    C5     0.95039       .     S
C5    C8     1.37910       .     S
C8    C5     1.37910       .     S
C8    C9     1.37372   1_655     S
C9    C8     1.37372   1_455     S
C9    H10    0.95043   1_455     S
H10   C9     0.95043   1_655     S
C9    C11    1.37602       .     S
C11   C9     1.37602       .     S
C11   H12    0.94974       .     S
H12   C11    0.94974       .     S
C11   C13    1.39140       .     S
C13   C11    1.39140       .     S
C13   H14    0.95030       .     S
H14   C13    0.95030       .     S
N15   H16    0.87974       .     S
H16   N15    0.87974       .     S
N15   H17    0.88034       .     S
H17   N15    0.88034       .     S
N15   C24    1.32735       .     S
C24   N15    1.32735       .     S
N18   H19    0.88018       .     S
H19   N18    0.88018       .     S
N18   H20    0.87963       .     S
H20   N18    0.87963       .     S
N18   C24    1.32644       .     S
C24   N18    1.32644       .     S
N21   H22    0.87945       .     S
H22   N21    0.87945       .     S
N21   H23    0.87986       .     S
H23   N21    0.87986       .     S
N21   C24    1.32650       .     S
C24   N21    1.32650       .     S
O2    H16    2.09695       .     S
H16   O2     2.09695       .     S
O4    H17    2.04763       .     S
H17   O4     2.04763       .     S
O2    H19    2.07372   1_465     S
H19   O2     2.07372   1_645     S
O7    H20    2.09448   1_565     S
H20   O7     2.09448   1_545     S
O4    H22    2.02924   1_455     S
H22   O4     2.02924   1_655     S
O7    H23    2.09302       .     S
H23   O7     2.09302       .     S
O2    S0     1.45630       .     S
S0    O2     1.45630       .     S
C3    S0     1.77245   1_545     S
S0    C3     1.77245   1_565     S
O4    S0     1.46444   1_545     S
S0    O4     1.46444   1_565     S
O7    S0     1.45737       .     S
S0    O7     1.45737       .     S
C8    F1     1.35407       .     S
F1    C8     1.35407       .     S
C5    C3     1.39045   1_655     S
C3    C5     1.39045   1_455     S
C13   C3     1.38698       .     S
C3    C13    1.38698       .     S
H6    C5     0.95039       .     S
C5    H6     0.95039       .     S
C8    C5     1.37910       .     S
C5    C8     1.37910       .     S
C9    C8     1.37372   1_455     S
C8    C9     1.37372   1_655     S
H10   C9     0.95043   1_655     S
C9    H10    0.95043   1_455     S
C11   C9     1.37602       .     S
C9    C11    1.37602       .     S
H12   C11    0.94974       .     S
C11   H12    0.94974       .     S
C13   C11    1.39140       .     S
C11   C13    1.39140       .     S
H14   C13    0.95030       .     S
C13   H14    0.95030       .     S
H16   N15    0.87974       .     S
N15   H16    0.87974       .     S
H17   N15    0.88034       .     S
N15   H17    0.88034       .     S
C24   N15    1.32735       .     S
N15   C24    1.32735       .     S
H19   N18    0.88018       .     S
N18   H19    0.88018       .     S
H20   N18    0.87963       .     S
N18   H20    0.87963       .     S
C24   N18    1.32644       .     S
N18   C24    1.32644       .     S
H22   N21    0.87945       .     S
N21   H22    0.87945       .     S
H23   N21    0.87986       .     S
N21   H23    0.87986       .     S
C24   N21    1.32650       .     S
N21   C24    1.32650       .     S
