data_I
_chemical_name_common  '/data/user2/wty/HOF/MOFDiff/mofdiff/data/test/2_g4fbs0516'
_cell_length_a 32.56500
_cell_length_b  7.45500
_cell_length_c 12.30800
_cell_angle_alpha 90.00000
_cell_angle_beta  90.00000
_cell_angle_gamma 90.00000
_space_group_name_H-M_alt      'P 1'


loop_
_space_group_symop_operation_xyz
  'x, y, z' 

loop_
_atom_site_label
_atom_site_fract_x
_atom_site_fract_y
_atom_site_fract_z
_atom_site_type_symbol
O0     0.77795   0.8029   0.1251     O
O1      0.7664   0.6426   0.9573     O
O2     0.77219   0.9658   0.9541     O
S3     0.78464   0.7995  0.00808     S
C4      0.8381   0.7841   0.9868     C
C5       0.853   0.7802   0.8817     C
H6      0.8345   0.7911   0.8222     H
C7      0.8946   0.7604   0.8627     C
H8      0.9048   0.7498   0.7907     H
C9      0.9207   0.7565   0.9495     C
C10     0.9074    0.757   0.0537     C
H11     0.9262   0.7484   0.1123     H
C12     0.8652   0.7711   0.0728     C
H13     0.8551   0.7716   0.1453     H
F14    0.96199   0.7443   0.9312     F
C15     0.0067   0.2505   0.0777     C
N16     0.0012   0.0975    0.027     N
H17     0.9926   0.0968   0.9592     H
H18      0.006   0.9957   0.0608     H
N19     0.9995   0.4067   0.0282     N
H20      0.991   0.4083   0.9604     H
H21     0.0034   0.5081   0.0634     H
N22     0.0189   0.2511   0.1816     N
H23     0.0232    0.149   0.2157     H
H24     0.0226   0.3535   0.2158     H
C25     0.7432   0.8033   0.6736     C
N26     0.7488   0.9556   0.7252     N
H27      0.757   0.9552   0.7933     H
H28     0.7443    0.058   0.6917     H
N29     0.7498   0.6464   0.7228     N
H30      0.758   0.6439   0.7909     H
H31     0.7459   0.5455   0.6872     H
N32     0.7313   0.8031   0.5695     N
H33     0.7273   0.9052   0.5353     H
H34     0.7276   0.7008   0.5352     H
O35    0.97198   0.2481   0.6276     O
O36    0.98419   0.4083   0.7947     O
O37    0.97775   0.0856   0.7992     O
S38    0.96542    0.251  0.74452     S
C39    0.91205   0.2694   0.7657     C
C40     0.8973   0.2577   0.8706     C
H41     0.9156   0.2359   0.9292     H
C42     0.8557   0.2779   0.8901     C
H43     0.8453   0.2804   0.9622     H
C44     0.8298   0.2942   0.8033     C
C45     0.8431      0.3   0.6992     C
H46     0.8242   0.3146   0.6409     H
C47     0.8852   0.2856   0.6794     C
H48     0.8954   0.2866   0.6071     H
F49    0.78851   0.3084   0.8218     F
C50     0.8924    0.661    0.454     C
H51     0.8985   0.6224   0.3801     H
H52     0.8855   0.5561   0.4988     H
H53     0.9165   0.7213   0.4853     H
C54     0.8484    0.837   0.5667     C
H55      0.826   0.9244   0.5682     H
H56      0.873   0.8897   0.5995     H
H57     0.8403   0.7298   0.6077     H
C58     0.8197     0.73   0.3942     C
H59     0.8271   0.6944   0.3201     H
H60     0.8003   0.8307   0.3914     H
H61      0.807   0.6289    0.432     H
C62     0.8572    0.787   0.4531     C
C63     0.8711    0.993    0.387     C
C64     0.8428    0.131    0.373     C
H65     0.8152    0.115   0.3954     H
C66      0.855    0.292    0.326     C
H67     0.8357   0.3857   0.3159     H
C68     0.8955    0.315    0.292     C
H69     0.9039   0.4244   0.2602     H
C70     0.9238    0.177   0.3066     C
H71     0.9514   0.1926    0.284     H
C72     0.9116    0.016    0.354     C
H73     0.9309   0.9219   0.3635     H
loop_
_geom_bond_atom_site_label_1
_geom_bond_atom_site_label_2
_geom_bond_distance
_geom_bond_site_symmetry_2
_ccdc_geom_bond_type
H17   O37    2.02951       .     S
O37   H17    2.02951       .     S
H20   O36    2.05146       .     S
O36   H20    2.05146       .     S
H27   O2     2.04154       .     S
O2    H27    2.04154       .     S
H30   O1     2.06626       .     S
O1    H30    2.06626       .     S
O0    S3     1.45689       .     S
S3    O0     1.45689       .     S
O1    S3     1.45314   1_556     S
S3    O1     1.45314   1_554     S
O2    S3     1.46383   1_556     S
S3    O2     1.46383   1_554     S
S3    C4     1.76426   1_554     S
C4    S3     1.76426   1_556     S
C4    C5     1.38189       .     S
C5    C4     1.38189       .     S
C4    C12    1.38153   1_556     S
C12   C4     1.38153   1_554     S
C5    H6     0.95176       .     S
H6    C5     0.95176       .     S
C5    C7     1.38264       .     S
C7    C5     1.38264       .     S
C7    H8     0.94968       .     S
H8    C7     0.94968       .     S
C7    C9     1.36550       .     S
C9    C7     1.36550       .     S
C9    C10    1.35366   1_556     S
C10   C9     1.35366   1_554     S
C9    F14    1.36637       .     S
F14   C9     1.36637       .     S
C10   H11    0.94822       .     S
H11   C10    0.94822       .     S
C10   C12    1.39816       .     S
C12   C10    1.39816       .     S
C12   H13    0.95102       .     S
H13   C12    0.95102       .     S
C15   N16    1.31243       .     S
N16   C15    1.31243       .     S
C15   N19    1.33497   1_455     S
N19   C15    1.33497   1_655     S
C15   N22    1.33910       .     S
N22   C15    1.33910       .     S
N16   H17    0.88024   1_454     S
H17   N16    0.88024   1_656     S
N16   H18    0.87946   1_545     S
H18   N16    0.87946   1_565     S
N19   H20    0.87927   1_554     S
H20   N19    0.87927   1_556     S
N19   H21    0.88049   1_655     S
H21   N19    0.88049   1_455     S
N22   H23    0.88041       .     S
H23   N22    0.88041       .     S
N22   H24    0.88004       .     S
H24   N22    0.88004       .     S
C25   N26    1.31367       .     S
N26   C25    1.31367       .     S
C25   N29    1.33457       .     S
N29   C25    1.33457       .     S
C25   N32    1.33859       .     S
N32   C25    1.33859       .     S
N26   H27    0.87969       .     S
H27   N26    0.87969       .     S
N26   H28    0.87991   1_565     S
H28   N26    0.87991   1_545     S
N29   H30    0.87988       .     S
H30   N29    0.87988       .     S
N29   H31    0.87974       .     S
H31   N29    0.87974       .     S
N32   H33    0.87949       .     S
H33   N32    0.87949       .     S
N32   H34    0.87998       .     S
H34   N32    0.87998       .     S
O35   S38    1.45498       .     S
S38   O35    1.45498       .     S
O36   S38    1.45953       .     S
S38   O36    1.45953       .     S
O37   S38    1.46102       .     S
S38   O37    1.46102       .     S
S38   C39    1.76278       .     S
C39   S38    1.76278       .     S
C39   C40    1.38032       .     S
C40   C39    1.38032       .     S
C39   C47    1.38106       .     S
C47   C39    1.38106       .     S
C40   H41    0.94961       .     S
H41   C40    0.94961       .     S
C40   C42    1.38402       .     S
C42   C40    1.38402       .     S
C42   H43    0.95002       .     S
H43   C42    0.95002       .     S
C42   C44    1.36656       .     S
C44   C42    1.36656       .     S
C44   C45    1.35318       .     S
C45   C44    1.35318       .     S
C44   F49    1.36785       .     S
F49   C44    1.36785       .     S
C45   H46    0.95160       .     S
H46   C45    0.95160       .     S
C45   C47    1.39661       .     S
C47   C45    1.39661       .     S
C47   H48    0.94987       .     S
H48   C47    0.94987       .     S
C50   H51    0.97446       .     S
H51   C50    0.97446       .     S
C50   H52    0.98290       .     S
H52   C50    0.98290       .     S
C50   H53    0.98307       .     S
H53   C50    0.98307       .     S
C50   C62    1.48204       .     S
C62   C50    1.48204       .     S
C54   H55    0.97826       .     S
H55   C54    0.97826       .     S
C54   H56    0.97933       .     S
H56   C54    0.97933       .     S
C54   H57    0.98128       .     S
H57   C54    0.98128       .     S
C54   C62    1.47513       .     S
C62   C54    1.47513       .     S
C58   H59    0.97995       .     S
H59   C58    0.97995       .     S
C58   H60    0.98178       .     S
H60   C58    0.98178       .     S
C58   H61    0.97753       .     S
H61   C58    0.97753       .     S
C58   C62    1.48237       .     S
C62   C58    1.48237       .     S
C63   C64    1.39191   1_565     S
C64   C63    1.39191   1_545     S
C63   C72    1.39062   1_565     S
C72   C63    1.39062   1_545     S
C64   H65    0.94767       .     S
H65   C64    0.94767       .     S
C64   C66    1.39036       .     S
C66   C64    1.39036       .     S
C66   H67    0.94785       .     S
H67   C66    0.94785       .     S
C66   C68    1.39426       .     S
C68   C66    1.39426       .     S
C68   H69    0.94508       .     S
H69   C68    0.94508       .     S
C68   C70    1.39285       .     S
C70   C68    1.39285       .     S
C70   H71    0.94801       .     S
H71   C70    0.94801       .     S
C70   C72    1.39241       .     S
C72   C70    1.39241       .     S
C72   H73    0.94911   1_545     S
H73   C72    0.94911   1_565     S
O37   H17    2.02951       .     S
H17   O37    2.02951       .     S
O36   H20    2.05146       .     S
H20   O36    2.05146       .     S
O2    H27    2.04154       .     S
H27   O2     2.04154       .     S
O1    H30    2.06626       .     S
H30   O1     2.06626       .     S
S3    O0     1.45689       .     S
O0    S3     1.45689       .     S
S3    O1     1.45314   1_554     S
O1    S3     1.45314   1_556     S
S3    O2     1.46383   1_554     S
O2    S3     1.46383   1_556     S
C4    S3     1.76426   1_556     S
S3    C4     1.76426   1_554     S
C5    C4     1.38189       .     S
C4    C5     1.38189       .     S
C12   C4     1.38153   1_554     S
C4    C12    1.38153   1_556     S
H6    C5     0.95176       .     S
C5    H6     0.95176       .     S
C7    C5     1.38264       .     S
C5    C7     1.38264       .     S
H8    C7     0.94968       .     S
C7    H8     0.94968       .     S
C9    C7     1.36550       .     S
C7    C9     1.36550       .     S
C10   C9     1.35366   1_554     S
C9    C10    1.35366   1_556     S
F14   C9     1.36637       .     S
C9    F14    1.36637       .     S
H11   C10    0.94822       .     S
C10   H11    0.94822       .     S
C12   C10    1.39816       .     S
C10   C12    1.39816       .     S
H13   C12    0.95102       .     S
C12   H13    0.95102       .     S
N16   C15    1.31243       .     S
C15   N16    1.31243       .     S
N19   C15    1.33497   1_655     S
C15   N19    1.33497   1_455     S
N22   C15    1.33910       .     S
C15   N22    1.33910       .     S
H17   N16    0.88024   1_656     S
N16   H17    0.88024   1_454     S
H18   N16    0.87946   1_565     S
N16   H18    0.87946   1_545     S
H20   N19    0.87927   1_556     S
N19   H20    0.87927   1_554     S
H21   N19    0.88049   1_455     S
N19   H21    0.88049   1_655     S
H23   N22    0.88041       .     S
N22   H23    0.88041       .     S
H24   N22    0.88004       .     S
N22   H24    0.88004       .     S
N26   C25    1.31367       .     S
C25   N26    1.31367       .     S
N29   C25    1.33457       .     S
C25   N29    1.33457       .     S
N32   C25    1.33859       .     S
C25   N32    1.33859       .     S
H27   N26    0.87969       .     S
N26   H27    0.87969       .     S
H28   N26    0.87991   1_545     S
N26   H28    0.87991   1_565     S
H30   N29    0.87988       .     S
N29   H30    0.87988       .     S
H31   N29    0.87974       .     S
N29   H31    0.87974       .     S
H33   N32    0.87949       .     S
N32   H33    0.87949       .     S
H34   N32    0.87998       .     S
N32   H34    0.87998       .     S
S38   O35    1.45498       .     S
O35   S38    1.45498       .     S
S38   O36    1.45953       .     S
O36   S38    1.45953       .     S
S38   O37    1.46102       .     S
O37   S38    1.46102       .     S
C39   S38    1.76278       .     S
S38   C39    1.76278       .     S
C40   C39    1.38032       .     S
C39   C40    1.38032       .     S
C47   C39    1.38106       .     S
C39   C47    1.38106       .     S
H41   C40    0.94961       .     S
C40   H41    0.94961       .     S
C42   C40    1.38402       .     S
C40   C42    1.38402       .     S
H43   C42    0.95002       .     S
C42   H43    0.95002       .     S
C44   C42    1.36656       .     S
C42   C44    1.36656       .     S
C45   C44    1.35318       .     S
C44   C45    1.35318       .     S
F49   C44    1.36785       .     S
C44   F49    1.36785       .     S
H46   C45    0.95160       .     S
C45   H46    0.95160       .     S
C47   C45    1.39661       .     S
C45   C47    1.39661       .     S
H48   C47    0.94987       .     S
C47   H48    0.94987       .     S
H51   C50    0.97446       .     S
C50   H51    0.97446       .     S
H52   C50    0.98290       .     S
C50   H52    0.98290       .     S
H53   C50    0.98307       .     S
C50   H53    0.98307       .     S
C62   C50    1.48204       .     S
C50   C62    1.48204       .     S
H55   C54    0.97826       .     S
C54   H55    0.97826       .     S
H56   C54    0.97933       .     S
C54   H56    0.97933       .     S
H57   C54    0.98128       .     S
C54   H57    0.98128       .     S
C62   C54    1.47513       .     S
C54   C62    1.47513       .     S
H59   C58    0.97995       .     S
C58   H59    0.97995       .     S
H60   C58    0.98178       .     S
C58   H60    0.98178       .     S
H61   C58    0.97753       .     S
C58   H61    0.97753       .     S
C62   C58    1.48237       .     S
C58   C62    1.48237       .     S
C64   C63    1.39191   1_545     S
C63   C64    1.39191   1_565     S
C72   C63    1.39062   1_545     S
C63   C72    1.39062   1_565     S
H65   C64    0.94767       .     S
C64   H65    0.94767       .     S
C66   C64    1.39036       .     S
C64   C66    1.39036       .     S
H67   C66    0.94785       .     S
C66   H67    0.94785       .     S
C68   C66    1.39426       .     S
C66   C68    1.39426       .     S
H69   C68    0.94508       .     S
C68   H69    0.94508       .     S
C70   C68    1.39285       .     S
C68   C70    1.39285       .     S
H71   C70    0.94801       .     S
C70   H71    0.94801       .     S
C72   C70    1.39241       .     S
C70   C72    1.39241       .     S
H73   C72    0.94911   1_565     S
C72   H73    0.94911   1_545     S
