data_I
_chemical_name_common  '/data/user2/wty/HOF/MOFDiff/mofdiff/data/test/2_g4tbbs02527'
_cell_length_a 13.66800
_cell_length_b 12.33400
_cell_length_c 22.01500
_cell_angle_alpha 90.00000
_cell_angle_beta  91.03000
_cell_angle_gamma 90.00000
_space_group_name_H-M_alt      'P 1'


loop_
_space_group_symop_operation_xyz
  'x, y, z' 

loop_
_atom_site_label
_atom_site_fract_x
_atom_site_fract_y
_atom_site_fract_z
_atom_site_type_symbol
N0       0.447   0.9499   0.7422     N
H1      0.4558   0.8824    0.754     H
H2      0.4952   0.9857   0.7253     H
N3      0.2892   0.9449   0.7747     N
H4      0.2966   0.8774   0.7868     H
H5      0.2327    0.978   0.7793     H
N6      0.3485   0.0999   0.7312     N
H7      0.3963   0.1359    0.714     H
H8      0.2914   0.1312   0.7363     H
C9      0.3628   0.9967   0.7496     C
S10    0.40396  0.68094  0.83159     S
O11     0.4793   0.7318   0.7949     O
O12     0.4032   0.5621   0.8245     O
O13     0.3075   0.7286   0.8206     O
C14     0.4364   0.7084   0.9081     C
C15     0.4978   0.6395   0.9402     C
H16     0.5203   0.5751   0.9213     H
C17     0.5271   0.6624    0.999     C
H18     0.5683   0.6129   0.0205     H
C19     0.4964   0.7598   0.0282     C
C20     0.4331    0.826   0.9947     C
H21     0.4088     0.89   0.0131     H
C22      0.404   0.8018   0.9352     C
H23     0.3619   0.8499   0.9134     H
C24     0.5295   0.7887   0.0919     C
C25     0.5894   0.8945   0.0888     C
H26     0.6489   0.8817   0.0657     H
H27     0.6073    0.918   0.1301     H
H28     0.5501   0.9509   0.0688     H
C29     0.5942   0.7025   0.1214     C
H30     0.5573   0.6347   0.1247     H
H31      0.615   0.7268    0.162     H
H32     0.6519   0.6906   0.0965     H
C33     0.4383   0.8028   0.1313     C
H34     0.3951   0.8576   0.1129     H
H35     0.4584   0.8262   0.1722     H
H36     0.4033   0.7336   0.1338     H
N37     0.0584   0.4451   0.7683     N
H38     0.0557   0.3752    0.776     H
H39     0.0081    0.478   0.7509     H
N40     0.1413   0.6072    0.771     N
H41     0.0905   0.6395   0.7538     H
H42     0.1941   0.6448   0.7804     H
C43     0.1382   0.5007   0.7827     C
N44     0.2143   0.4516   0.8089     N
H45     0.2119   0.3817   0.8167     H
H46     0.2673    0.489   0.8184     H
O47     0.9859   0.7834   0.1986     O
O48     0.8964   0.9529   0.2094     O
O49     0.8097   0.7813   0.2067     O
S50    0.89496  0.84156  0.18564     S
C51     0.8807   0.8514   0.1055     C
C52     0.8787   0.7577   0.0712     C
H53     0.8899   0.6895   0.0901     H
C54     0.8603   0.7626   0.0091     C
H55     0.8587   0.6976   0.9859     H
C56      0.844   0.8631   0.9797     C
C57     0.8501    0.955   0.0152     C
H58     0.8425   0.0238   0.9964     H
C59      0.867   0.9506   0.0773     C
H60     0.8692   0.0155   0.1005     H
C61      0.821   0.8671   0.9118     C
C62     0.8992   0.8036   0.8768     C
H63     0.8823   0.8037   0.8333     H
H64     0.9019   0.7287   0.8916     H
H65     0.9632    0.838   0.8831     H
C66     0.8209   0.9791   0.8862     C
H67     0.8088   0.9757   0.8422     H
H68     0.8846   0.0131   0.8943     H
H69     0.7694   0.0219   0.9052     H
C70     0.7238   0.8131   0.9021     C
H71     0.7264    0.766   0.8663     H
H72     0.6731   0.8684   0.8957     H
H73     0.7082   0.7695   0.9379     H
C74      0.178    0.612   0.1193     C
H75     0.1793   0.5367   0.1331     H
H76      0.119   0.6478   0.1342     H
H77     0.2361   0.6501   0.1352     H
C78      0.172    0.735   0.0272     C
H79     0.1141   0.7692   0.0439     H
H80     0.1686   0.7369   0.9827     H
H81      0.231   0.7733   0.0414     H
C82      0.272    0.562    0.025     C
H83     0.2711   0.4844   0.0341     H
H84     0.3292   0.5955    0.045     H
H85     0.2758   0.5728    0.981     H
C86      0.178    0.615   0.0486     C
C87      0.091    0.554   0.0221     C
C88      0.079     0.56   0.9619     C
H89     0.1234   0.5967   0.9361     H
C90      0.991    0.505   0.9406     C
H91     0.9767   0.5059   0.8982     H
C92      0.028    0.502   0.0593     C
H93     0.0425   0.5016   0.1017     H
C94       0.94    0.447   0.0369     C
H95     0.8954   0.4109   0.0627     H
C96      0.927    0.453    0.977     C
C97      0.837    0.407   0.9448     C
C98      0.746    0.452    0.977     C
H99     0.7411     0.53   0.9698     H
H100    0.7508   0.4371   0.0203     H
H101    0.6868   0.4162   0.9598     H
C102     0.837    0.281   0.9493     C
H103    0.8961   0.2525   0.9312     H
H104     0.779   0.2527   0.9276     H
H105    0.8344   0.2599   0.9921     H
C106     0.841    0.449   0.8781     C
H107    0.8391   0.5286   0.8781     H
H108    0.7857   0.4207   0.8545     H
H109    0.9025    0.425   0.8597     H
loop_
_geom_bond_atom_site_label_1
_geom_bond_atom_site_label_2
_geom_bond_distance
_geom_bond_site_symmetry_2
_ccdc_geom_bond_type
H1    O11    2.08658       .     S
O11   H1     2.08658       .     S
H4    O13    1.98500       .     S
O13   H4     1.98500       .     S
H42   O13    2.05050       .     S
O13   H42    2.05050       .     S
H46   O12    2.06693       .     S
O12   H46    2.06693       .     S
N0    H1     0.87975       .     S
H1    N0     0.87975       .     S
N0    H2     0.88104       .     S
H2    N0     0.88104       .     S
N0    C9     1.30035       .     S
C9    N0     1.30035       .     S
N3    H4     0.87940       .     S
H4    N3     0.87940       .     S
N3    H5     0.88096       .     S
H5    N3     0.88096       .     S
N3    C9     1.32117       .     S
C9    N3     1.32117       .     S
N6    H7     0.88106       .     S
H7    N6     0.88106       .     S
N6    H8     0.87971       .     S
H8    N6     0.87971       .     S
N6    C9     1.34894   1_545     S
C9    N6     1.34894   1_565     S
S10   O11    1.46158       .     S
O11   S10    1.46158       .     S
S10   O12    1.47408       .     S
O12   S10    1.47408       .     S
S10   O13    1.45974       .     S
O13   S10    1.45974       .     S
S10   C14    1.76679       .     S
C14   S10    1.76679       .     S
C14   C15    1.38005       .     S
C15   C14    1.38005       .     S
C14   C22    1.37428       .     S
C22   C14    1.37428       .     S
C15   H16    0.95038       .     S
H16   C15    0.95038       .     S
C15   C17    1.37739       .     S
C17   C15    1.37739       .     S
C17   H18    0.95095   1_556     S
H18   C17    0.95095   1_554     S
C17   C19    1.42906   1_556     S
C19   C17    1.42906   1_554     S
C19   C20    1.39148   1_554     S
C20   C19    1.39147   1_556     S
C19   C24    1.50848       .     S
C24   C19    1.50848       .     S
C20   H21    0.94992   1_556     S
H21   C20    0.94992   1_554     S
C20   C22    1.39441       .     S
C22   C20    1.39441       .     S
C22   H23    0.95051       .     S
H23   C22    0.95051       .     S
C24   C25    1.54267       .     S
C25   C24    1.54267       .     S
C24   C29    1.52103       .     S
C29   C24    1.52103       .     S
C24   C33    1.54120       .     S
C33   C24    1.54120       .     S
C25   H26    0.97968       .     S
H26   C25    0.97968       .     S
C25   H27    0.98110       .     S
H27   C25    0.98110       .     S
C25   H28    0.97868       .     S
H28   C25    0.97868       .     S
C29   H30    0.97993       .     S
H30   C29    0.97993       .     S
C29   H31    0.98001       .     S
H31   C29    0.98001       .     S
C29   H32    0.97956       .     S
H32   C29    0.97956       .     S
C33   H34    0.98029       .     S
H34   C33    0.98029       .     S
C33   H35    0.98011       .     S
H35   C33    0.98011       .     S
C33   H36    0.98046       .     S
H36   C33    0.98046       .     S
N37   H38    0.87956       .     S
H38   N37    0.87956       .     S
N37   H39    0.88011       .     S
H39   N37    0.88011       .     S
N37   C43    1.32212       .     S
C43   N37    1.32212       .     S
N40   H41    0.88020       .     S
H41   N40    0.88020       .     S
N40   H42    0.87939       .     S
H42   N40    0.87939       .     S
N40   C43    1.33940       .     S
C43   N40    1.33940       .     S
C43   N44    1.32656       .     S
N44   C43    1.32656       .     S
N44   H45    0.87981       .     S
H45   N44    0.87981       .     S
N44   H46    0.88082       .     S
H46   N44    0.88082       .     S
O47   S50    1.45884       .     S
S50   O47    1.45884       .     S
O48   S50    1.46952       .     S
S50   O48    1.46952       .     S
O49   S50    1.46451       .     S
S50   O49    1.46451       .     S
S50   C51    1.77568       .     S
C51   S50    1.77568       .     S
C51   C52    1.38052       .     S
C52   C51    1.38052       .     S
C51   C59    1.38323       .     S
C59   C51    1.38323       .     S
C52   H53    0.94966       .     S
H53   C52    0.94966       .     S
C52   C54    1.38693       .     S
C54   C52    1.38693       .     S
C54   H55    0.95062   1_554     S
H55   C54    0.95062   1_556     S
C54   C56    1.41418   1_554     S
C56   C54    1.41418   1_556     S
C56   C57    1.37848   1_556     S
C57   C56    1.37848   1_554     S
C56   C61    1.52277       .     S
C61   C56    1.52277       .     S
C57   H58    0.94902   1_564     S
H58   C57    0.94901   1_546     S
C57   C59    1.38347       .     S
C59   C57    1.38347       .     S
C59   H60    0.94973   1_565     S
H60   C59    0.94973   1_545     S
C61   C62    1.54245       .     S
C62   C61    1.54245       .     S
C61   C66    1.49194       .     S
C66   C61    1.49194       .     S
C61   C70    1.49800       .     S
C70   C61    1.49800       .     S
C62   H63    0.98107       .     S
H63   C62    0.98107       .     S
C62   H64    0.98006       .     S
H64   C62    0.98006       .     S
C62   H65    0.97984       .     S
H65   C62    0.97984       .     S
C66   H67    0.98064       .     S
H67   C66    0.98064       .     S
C66   H68    0.97985   1_565     S
H68   C66    0.97985   1_545     S
C66   H69    0.97964   1_565     S
H69   C66    0.97964   1_545     S
C70   H71    0.98026       .     S
H71   C70    0.98026       .     S
C70   H72    0.98070       .     S
H72   C70    0.98070       .     S
C70   H73    0.98074       .     S
H73   C70    0.98074       .     S
C74   H75    0.97724       .     S
H75   C74    0.97724       .     S
C74   H76    0.98101       .     S
H76   C74    0.98101       .     S
C74   H77    0.98182       .     S
H77   C74    0.98182       .     S
C74   C86    1.55690       .     S
C86   C74    1.55690       .     S
C78   H79    0.97460       .     S
H79   C78    0.97460       .     S
C78   H80    0.98021   1_554     S
H80   C78    0.98021   1_556     S
C78   H81    0.98088       .     S
H81   C78    0.98088       .     S
C78   C86    1.55497       .     S
C86   C78    1.55497       .     S
C82   H83    0.97798       .     S
H83   C82    0.97798       .     S
C82   H84    0.98155       .     S
H84   C82    0.98155       .     S
C82   H85    0.98008   1_554     S
H85   C82    0.98008   1_556     S
C82   C86    1.54011       .     S
C86   C82    1.54011       .     S
C86   C87    1.51508       .     S
C87   C86    1.51508       .     S
C87   C88    1.33454   1_554     S
C88   C87    1.33454   1_556     S
C87   C92    1.35973       .     S
C92   C87    1.35973       .     S
C88   H89    0.95298       .     S
H89   C88    0.95298       .     S
C88   C90    1.45137   1_455     S
C90   C88    1.45137   1_655     S
C90   H91    0.95030       .     S
H91   C90    0.95030       .     S
C90   C96    1.35790       .     S
C96   C90    1.35790       .     S
C92   H93    0.95076       .     S
H93   C92    0.95076       .     S
C92   C94    1.45902   1_455     S
C94   C92    1.45902   1_655     S
C94   H95    0.95127       .     S
H95   C94    0.95127       .     S
C94   C96    1.32951   1_554     S
C96   C94    1.32951   1_556     S
C96   C97    1.51864       .     S
C97   C96    1.51864       .     S
C97   C98    1.54573       .     S
C98   C97    1.54573       .     S
C97   C102   1.55724       .     S
C102  C97    1.55724       .     S
C97   C106   1.55898       .     S
C106  C97    1.55898       .     S
C98   H99    0.97712       .     S
H99   C98    0.97712       .     S
C98   H100   0.97186   1_556     S
H100  C98    0.97186   1_554     S
C98   H101   0.99099       .     S
H101  C98    0.99099       .     S
C102  H103   0.97284       .     S
H103  C102   0.97284       .     S
C102  H104   0.98229       .     S
H104  C102   0.98229       .     S
C102  H105   0.97878       .     S
H105  C102   0.97878       .     S
C106  H107   0.98213       .     S
H107  C106   0.98213       .     S
C106  H108   0.97414       .     S
H108  C106   0.97414       .     S
C106  H109   0.98515       .     S
H109  C106   0.98515       .     S
O11   H1     2.08658       .     S
H1    O11    2.08658       .     S
O13   H4     1.98500       .     S
H4    O13    1.98500       .     S
O13   H42    2.05050       .     S
H42   O13    2.05050       .     S
O12   H46    2.06693       .     S
H46   O12    2.06693       .     S
H1    N0     0.87975       .     S
N0    H1     0.87975       .     S
H2    N0     0.88104       .     S
N0    H2     0.88104       .     S
C9    N0     1.30035       .     S
N0    C9     1.30035       .     S
H4    N3     0.87940       .     S
N3    H4     0.87940       .     S
H5    N3     0.88096       .     S
N3    H5     0.88096       .     S
C9    N3     1.32117       .     S
N3    C9     1.32117       .     S
H7    N6     0.88106       .     S
N6    H7     0.88106       .     S
H8    N6     0.87971       .     S
N6    H8     0.87971       .     S
C9    N6     1.34894   1_565     S
N6    C9     1.34894   1_545     S
O11   S10    1.46158       .     S
S10   O11    1.46158       .     S
O12   S10    1.47408       .     S
S10   O12    1.47408       .     S
O13   S10    1.45974       .     S
S10   O13    1.45974       .     S
C14   S10    1.76679       .     S
S10   C14    1.76679       .     S
C15   C14    1.38005       .     S
C14   C15    1.38005       .     S
C22   C14    1.37428       .     S
C14   C22    1.37428       .     S
H16   C15    0.95038       .     S
C15   H16    0.95038       .     S
C17   C15    1.37739       .     S
C15   C17    1.37739       .     S
H18   C17    0.95095   1_554     S
C17   H18    0.95095   1_556     S
C19   C17    1.42906   1_554     S
C17   C19    1.42906   1_556     S
C20   C19    1.39147   1_556     S
C19   C20    1.39148   1_554     S
C24   C19    1.50848       .     S
C19   C24    1.50848       .     S
H21   C20    0.94992   1_554     S
C20   H21    0.94992   1_556     S
C22   C20    1.39441       .     S
C20   C22    1.39441       .     S
H23   C22    0.95051       .     S
C22   H23    0.95051       .     S
C25   C24    1.54267       .     S
C24   C25    1.54267       .     S
C29   C24    1.52103       .     S
C24   C29    1.52103       .     S
C33   C24    1.54120       .     S
C24   C33    1.54120       .     S
H26   C25    0.97968       .     S
C25   H26    0.97968       .     S
H27   C25    0.98110       .     S
C25   H27    0.98110       .     S
H28   C25    0.97868       .     S
C25   H28    0.97868       .     S
H30   C29    0.97993       .     S
C29   H30    0.97993       .     S
H31   C29    0.98001       .     S
C29   H31    0.98001       .     S
H32   C29    0.97956       .     S
C29   H32    0.97956       .     S
H34   C33    0.98029       .     S
C33   H34    0.98029       .     S
H35   C33    0.98011       .     S
C33   H35    0.98011       .     S
H36   C33    0.98046       .     S
C33   H36    0.98046       .     S
H38   N37    0.87956       .     S
N37   H38    0.87956       .     S
H39   N37    0.88011       .     S
N37   H39    0.88011       .     S
C43   N37    1.32212       .     S
N37   C43    1.32212       .     S
H41   N40    0.88020       .     S
N40   H41    0.88020       .     S
H42   N40    0.87939       .     S
N40   H42    0.87939       .     S
C43   N40    1.33940       .     S
N40   C43    1.33940       .     S
N44   C43    1.32656       .     S
C43   N44    1.32656       .     S
H45   N44    0.87981       .     S
N44   H45    0.87981       .     S
H46   N44    0.88082       .     S
N44   H46    0.88082       .     S
S50   O47    1.45884       .     S
O47   S50    1.45884       .     S
S50   O48    1.46952       .     S
O48   S50    1.46952       .     S
S50   O49    1.46451       .     S
O49   S50    1.46451       .     S
C51   S50    1.77568       .     S
S50   C51    1.77568       .     S
C52   C51    1.38052       .     S
C51   C52    1.38052       .     S
C59   C51    1.38323       .     S
C51   C59    1.38323       .     S
H53   C52    0.94966       .     S
C52   H53    0.94966       .     S
C54   C52    1.38693       .     S
C52   C54    1.38693       .     S
H55   C54    0.95062   1_556     S
C54   H55    0.95062   1_554     S
C56   C54    1.41418   1_556     S
C54   C56    1.41418   1_554     S
C57   C56    1.37848   1_554     S
C56   C57    1.37848   1_556     S
C61   C56    1.52277       .     S
C56   C61    1.52277       .     S
H58   C57    0.94901   1_546     S
C57   H58    0.94902   1_564     S
C59   C57    1.38347       .     S
C57   C59    1.38347       .     S
H60   C59    0.94973   1_545     S
C59   H60    0.94973   1_565     S
C62   C61    1.54245       .     S
C61   C62    1.54245       .     S
C66   C61    1.49194       .     S
C61   C66    1.49194       .     S
C70   C61    1.49800       .     S
C61   C70    1.49800       .     S
H63   C62    0.98107       .     S
C62   H63    0.98107       .     S
H64   C62    0.98006       .     S
C62   H64    0.98006       .     S
H65   C62    0.97984       .     S
C62   H65    0.97984       .     S
H67   C66    0.98064       .     S
C66   H67    0.98064       .     S
H68   C66    0.97985   1_545     S
C66   H68    0.97985   1_565     S
H69   C66    0.97964   1_545     S
C66   H69    0.97964   1_565     S
H71   C70    0.98026       .     S
C70   H71    0.98026       .     S
H72   C70    0.98070       .     S
C70   H72    0.98070       .     S
H73   C70    0.98074       .     S
C70   H73    0.98074       .     S
H75   C74    0.97724       .     S
C74   H75    0.97724       .     S
H76   C74    0.98101       .     S
C74   H76    0.98101       .     S
H77   C74    0.98182       .     S
C74   H77    0.98182       .     S
C86   C74    1.55690       .     S
C74   C86    1.55690       .     S
H79   C78    0.97460       .     S
C78   H79    0.97460       .     S
H80   C78    0.98021   1_556     S
C78   H80    0.98021   1_554     S
H81   C78    0.98088       .     S
C78   H81    0.98088       .     S
C86   C78    1.55497       .     S
C78   C86    1.55497       .     S
H83   C82    0.97798       .     S
C82   H83    0.97798       .     S
H84   C82    0.98155       .     S
C82   H84    0.98155       .     S
H85   C82    0.98008   1_556     S
C82   H85    0.98008   1_554     S
C86   C82    1.54011       .     S
C82   C86    1.54011       .     S
C87   C86    1.51508       .     S
C86   C87    1.51508       .     S
C88   C87    1.33454   1_556     S
C87   C88    1.33454   1_554     S
C92   C87    1.35973       .     S
C87   C92    1.35973       .     S
H89   C88    0.95298       .     S
C88   H89    0.95298       .     S
C90   C88    1.45137   1_655     S
C88   C90    1.45137   1_455     S
H91   C90    0.95030       .     S
C90   H91    0.95030       .     S
C96   C90    1.35790       .     S
C90   C96    1.35790       .     S
H93   C92    0.95076       .     S
C92   H93    0.95076       .     S
C94   C92    1.45902   1_655     S
C92   C94    1.45902   1_455     S
H95   C94    0.95127       .     S
C94   H95    0.95127       .     S
C96   C94    1.32951   1_556     S
C94   C96    1.32951   1_554     S
C97   C96    1.51864       .     S
C96   C97    1.51864       .     S
C98   C97    1.54573       .     S
C97   C98    1.54573       .     S
C102  C97    1.55724       .     S
C97   C102   1.55724       .     S
C106  C97    1.55898       .     S
C97   C106   1.55898       .     S
H99   C98    0.97712       .     S
C98   H99    0.97712       .     S
H100  C98    0.97186   1_554     S
C98   H100   0.97186   1_556     S
H101  C98    0.99099       .     S
C98   H101   0.99099       .     S
H103  C102   0.97284       .     S
C102  H103   0.97284       .     S
H104  C102   0.98229       .     S
C102  H104   0.98229       .     S
H105  C102   0.97878       .     S
C102  H105   0.97878       .     S
H107  C106   0.98213       .     S
C106  H107   0.98213       .     S
H108  C106   0.97414       .     S
C106  H108   0.97414       .     S
H109  C106   0.98515       .     S
C106  H109   0.98515       .     S
