data_I
_chemical_name_common  '/data/user2/wty/HOF/MOFDiff/mofdiff/data/test/2_g4cbs25'
_cell_length_a  7.46880
_cell_length_b 12.31600
_cell_length_c 20.94800
_cell_angle_alpha 90.00000
_cell_angle_beta  90.00000
_cell_angle_gamma 90.00000
_space_group_name_H-M_alt      'P 1'


loop_
_space_group_symop_operation_xyz
  'x, y, z' 

loop_
_atom_site_label
_atom_site_fract_x
_atom_site_fract_y
_atom_site_fract_z
_atom_site_type_symbol
O0      0.7443  0.62061  0.90753     O
N1      0.6636  0.32835  0.07105     N
O2      0.7574  0.53851  0.81727     O
N3      0.7393  0.53857  0.87527     N
C4      0.6718   0.3343  0.00548     C
C5      0.6528   0.2405  0.96746     C
H6       0.634   0.1723   0.9875     H
C7      0.6608   0.2458  0.90176     C
H8      0.6467   0.1811   0.8776     H
C9      0.6887   0.3427  0.87032     C
H10     0.6939   0.3465   0.8251     H
C11     0.7086  0.43346  0.90762     C
C12     0.7011    0.432  0.97344     C
H13     0.7159   0.4974   0.9969     H
C14     0.6734   0.4257  0.10923     C
H15     0.7885   0.4617   0.1019     H
H16     0.6624   0.4067   0.1545     H
H17     0.5758   0.4748   0.0972     H
C18     0.6533   0.2248  0.10291     C
H19     0.5546   0.1823   0.0848     H
H20     0.6323   0.2362   0.1486     H
H21     0.7661   0.1854    0.097     H
Cl22   0.12754  0.57722  0.08156    Cl
S23    0.24306  0.72658  0.79928     S
O24     0.2475  0.84468  0.79867     O
C25     0.2151  0.68665  0.87995     C
O26     0.0892  0.68294  0.76458     O
C27     0.1156  0.75058  0.92133     C
H28     0.0661   0.8173   0.9069     H
O29     0.4092  0.67689  0.77799     O
C30     0.0884   0.7169  0.98378     C
H31     0.0208   0.7602   0.0125     H
C32     0.1605   0.6202  0.00329     C
C33     0.2595  0.55555  0.96247     C
H34      0.309   0.4889    0.977     H
C35     0.2854  0.58933  0.90033     C
H36     0.3518   0.5453   0.8716     H
N37     0.7472  0.79082  0.77693     N
H38     0.6452   0.7567   0.7833     H
H39     0.8488   0.7547   0.7782     H
N40     0.9021  0.94689  0.75481     N
H41     0.9031   0.0169   0.7464     H
H42     0.0032   0.9104   0.7562     H
N43     0.5959  0.95115  0.76341     N
H44     0.4936   0.9174   0.7697     H
H45     0.5969   0.0214   0.7557     H
C46     0.7479  0.89639  0.76545     C
loop_
_geom_bond_atom_site_label_1
_geom_bond_atom_site_label_2
_geom_bond_distance
_geom_bond_site_symmetry_2
_ccdc_geom_bond_type
H38   O29    2.02125       .     S
O29   H38    2.02125       .     S
H39   O26    2.02146   1_655     S
O26   H39    2.02146   1_455     S
H42   O24    2.18538       .     S
O24   H42    2.18538       .     S
H44   O24    2.13282       .     S
O24   H44    2.13282       .     S
O0    N3     1.21614       .     S
N3    O0     1.21614       .     S
N1    C4     1.37688       .     S
C4    N1     1.37688       .     S
N1    C14    1.44310       .     S
C14   N1     1.44310       .     S
N1    C18    1.44145       .     S
C18   N1     1.44145       .     S
O2    N3     1.22248       .     S
N3    O2     1.22248       .     S
N3    C11    1.47906       .     S
C11   N3     1.47906       .     S
C4    C5     1.41033   1_554     S
C5    C4     1.41033   1_556     S
C4    C12    1.39507   1_554     S
C12   C4     1.39507   1_556     S
C5    H6     0.94945       .     S
H6    C5     0.94945       .     S
C5    C7     1.37913       .     S
C7    C5     1.37913       .     S
C7    H8     0.94984       .     S
H8    C7     0.94984       .     S
C7    C9     1.37893       .     S
C9    C7     1.37893       .     S
C9    H10    0.94922       .     S
H10   C9     0.94922       .     S
C9    C11    1.37189       .     S
C11   C9     1.37189       .     S
C11   C12    1.38005       .     S
C12   C11    1.38005       .     S
C12   H13    0.95000       .     S
H13   C12    0.95000       .     S
C14   H15    0.97937       .     S
H15   C14    0.97937       .     S
C14   H16    0.98021       .     S
H16   C14    0.98021       .     S
C14   H17    0.98008       .     S
H17   C14    0.98008       .     S
C18   H19    0.98047       .     S
H19   C18    0.98047       .     S
C18   H20    0.97999       .     S
H20   C18    0.97999       .     S
C18   H21    0.98009       .     S
H21   C18    0.98009       .     S
Cl22  C32    1.74043       .     S
C32   Cl22   1.74043       .     S
S23   O24    1.45495       .     S
O24   S23    1.45495       .     S
S23   C25    1.77232       .     S
C25   S23    1.77232       .     S
S23   O26    1.46212       .     S
O26   S23    1.46212       .     S
S23   O29    1.45368       .     S
O29   S23    1.45368       .     S
C25   C27    1.38694       .     S
C27   C25    1.38694       .     S
C25   C35    1.37643       .     S
C35   C25    1.37643       .     S
C27   H28    0.95041       .     S
H28   C27    0.95041       .     S
C27   C30    1.38735       .     S
C30   C27    1.38735       .     S
C30   H31    0.94935   1_556     S
H31   C30    0.94935   1_554     S
C30   C32    1.36945   1_556     S
C32   C30    1.36945   1_554     S
C32   C33    1.38272   1_554     S
C33   C32    1.38271   1_556     S
C33   H34    0.95034       .     S
H34   C33    0.95034       .     S
C33   C35    1.38020       .     S
C35   C33    1.38020       .     S
C35   H36    0.94985       .     S
H36   C35    0.94985       .     S
N37   H38    0.88020       .     S
H38   N37    0.88020       .     S
N37   H39    0.88002       .     S
H39   N37    0.88002       .     S
N37   C46    1.32226       .     S
C46   N37    1.32226       .     S
N40   H41    0.88009   1_565     S
H41   N40    0.88009   1_545     S
N40   H42    0.87920   1_655     S
H42   N40    0.87920   1_455     S
N40   C46    1.32774       .     S
C46   N40    1.32774       .     S
N43   H44    0.87973       .     S
H44   N43    0.87973       .     S
N43   H45    0.88018   1_565     S
H45   N43    0.88018   1_545     S
N43   C46    1.32117       .     S
C46   N43    1.32117       .     S
O29   H38    2.02125       .     S
H38   O29    2.02125       .     S
O26   H39    2.02146   1_455     S
H39   O26    2.02146   1_655     S
O24   H42    2.18538       .     S
H42   O24    2.18538       .     S
O24   H44    2.13282       .     S
H44   O24    2.13282       .     S
N3    O0     1.21614       .     S
O0    N3     1.21614       .     S
C4    N1     1.37688       .     S
N1    C4     1.37688       .     S
C14   N1     1.44310       .     S
N1    C14    1.44310       .     S
C18   N1     1.44145       .     S
N1    C18    1.44145       .     S
N3    O2     1.22248       .     S
O2    N3     1.22248       .     S
C11   N3     1.47906       .     S
N3    C11    1.47906       .     S
C5    C4     1.41033   1_556     S
C4    C5     1.41033   1_554     S
C12   C4     1.39507   1_556     S
C4    C12    1.39507   1_554     S
H6    C5     0.94945       .     S
C5    H6     0.94945       .     S
C7    C5     1.37913       .     S
C5    C7     1.37913       .     S
H8    C7     0.94984       .     S
C7    H8     0.94984       .     S
C9    C7     1.37893       .     S
C7    C9     1.37893       .     S
H10   C9     0.94922       .     S
C9    H10    0.94922       .     S
C11   C9     1.37189       .     S
C9    C11    1.37189       .     S
C12   C11    1.38005       .     S
C11   C12    1.38005       .     S
H13   C12    0.95000       .     S
C12   H13    0.95000       .     S
H15   C14    0.97937       .     S
C14   H15    0.97937       .     S
H16   C14    0.98021       .     S
C14   H16    0.98021       .     S
H17   C14    0.98008       .     S
C14   H17    0.98008       .     S
H19   C18    0.98047       .     S
C18   H19    0.98047       .     S
H20   C18    0.97999       .     S
C18   H20    0.97999       .     S
H21   C18    0.98009       .     S
C18   H21    0.98009       .     S
C32   Cl22   1.74043       .     S
Cl22  C32    1.74043       .     S
O24   S23    1.45495       .     S
S23   O24    1.45495       .     S
C25   S23    1.77232       .     S
S23   C25    1.77232       .     S
O26   S23    1.46212       .     S
S23   O26    1.46212       .     S
O29   S23    1.45368       .     S
S23   O29    1.45368       .     S
C27   C25    1.38694       .     S
C25   C27    1.38694       .     S
C35   C25    1.37643       .     S
C25   C35    1.37643       .     S
H28   C27    0.95041       .     S
C27   H28    0.95041       .     S
C30   C27    1.38735       .     S
C27   C30    1.38735       .     S
H31   C30    0.94935   1_554     S
C30   H31    0.94935   1_556     S
C32   C30    1.36945   1_554     S
C30   C32    1.36945   1_556     S
C33   C32    1.38271   1_556     S
C32   C33    1.38272   1_554     S
H34   C33    0.95034       .     S
C33   H34    0.95034       .     S
C35   C33    1.38020       .     S
C33   C35    1.38020       .     S
H36   C35    0.94985       .     S
C35   H36    0.94985       .     S
H38   N37    0.88020       .     S
N37   H38    0.88020       .     S
H39   N37    0.88002       .     S
N37   H39    0.88002       .     S
C46   N37    1.32226       .     S
N37   C46    1.32226       .     S
H41   N40    0.88009   1_545     S
N40   H41    0.88009   1_565     S
H42   N40    0.87920   1_455     S
N40   H42    0.87920   1_655     S
C46   N40    1.32774       .     S
N40   C46    1.32774       .     S
H44   N43    0.87973       .     S
N43   H44    0.87973       .     S
H45   N43    0.88018   1_545     S
N43   H45    0.88018   1_565     S
C46   N43    1.32117       .     S
N43   C46    1.32117       .     S
