data_I
_chemical_name_common  '/data/user2/wty/HOF/MOFDiff/mofdiff/data/test/2_g4bbs1'
_cell_length_a  7.47860
_cell_length_b 19.35890
_cell_length_c 11.55390
_cell_angle_alpha 90.00000
_cell_angle_beta  91.20800
_cell_angle_gamma 90.00000
_space_group_name_H-M_alt      'P 1'


loop_
_space_group_symop_operation_xyz
  'x, y, z' 

loop_
_atom_site_label
_atom_site_fract_x
_atom_site_fract_y
_atom_site_fract_z
_atom_site_type_symbol
C0      0.9028   0.6216   0.8294     C
C1      0.8527   0.5692   0.9043     C
C2      0.8928   0.5008   0.8787     C
C3      0.9831   0.4848   0.7783     C
C4      0.0333   0.5372   0.7034     C
C5      0.9932   0.6056   0.7289     C
C6       0.864    0.605   0.8649     C
C7       0.861   0.5367   0.9021     C
C8      0.9351   0.4851   0.8344     C
C9      0.0122   0.5018   0.7297     C
C10     0.0151   0.5701   0.6925     C
C11      0.941   0.6217   0.7601     C
Br12   0.49753  0.65362  0.53955    Br
S13    0.40451  0.32618    0.588     S
O14     0.4031   0.3115   0.7119     O
C15     0.4242  0.41739   0.5755     C
O16     0.5614  0.29654   0.5331     O
C17     0.5173   0.4529   0.6611     C
H18     0.5663   0.4291   0.7263     H
O19     0.2389    0.307   0.5278     O
C20     0.5384   0.5248   0.6502     C
H21     0.6001   0.5505   0.7086     H
C22     0.4684    0.557   0.5538     C
C23     0.3771   0.5217   0.4667     C
H24     0.3308   0.5454   0.4007     H
C25     0.3544   0.4504   0.4781     C
H26     0.2919   0.4248   0.4199     H
N27     0.5636   0.7759   0.8157     N
H28     0.5653   0.7587   0.8862     H
H29     0.6644   0.7872   0.7826     H
N30     0.4032  0.81328   0.6539     N
H31     0.2999   0.8206   0.6181     H
H32     0.5035   0.8248   0.6203     H
N33     0.2558   0.7677   0.8084     N
H34     0.1531   0.7753   0.7721     H
H35     0.2578   0.7489   0.8777     H
C36     0.4079   0.7848   0.7587     C
loop_
_geom_bond_atom_site_label_1
_geom_bond_atom_site_label_2
_geom_bond_distance
_geom_bond_site_symmetry_2
_ccdc_geom_bond_type
C0    C1     1.38995       .     S
C1    C0     1.38995       .     S
C0    C5     1.39083       .     S
C5    C0     1.39083       .     S
C0    C6     0.60060       .     S
C6    C0     0.60060       .     S
C0    C11    0.85578       .     S
C11   C0     0.85578       .     S
C1    C2     1.39087       .     S
C2    C1     1.39087       .     S
C1    C6     0.83445       .     S
C6    C1     0.83445       .     S
C1    C7     0.63278       .     S
C7    C1     0.63278       .     S
C2    C3     1.38948       .     S
C3    C2     1.38948       .     S
C2    C7     0.78445       .     S
C7    C2     0.78445       .     S
C2    C8     0.67916       .     S
C8    C2     0.67916       .     S
C3    C4     1.39016   1_655     S
C4    C3     1.39016   1_455     S
C3    C8     0.74755       .     S
C8    C3     0.74755       .     S
C3    C9     0.69002   1_655     S
C9    C3     0.69002   1_455     S
C4    C5     1.39062   1_455     S
C5    C4     1.39062   1_655     S
C4    C9     0.76740       .     S
C9    C4     0.76740       .     S
C4    C10    0.66281       .     S
C10   C4     0.66281       .     S
C5    C10    0.82395   1_655     S
C10   C5     0.82395   1_455     S
C5    C11    0.62082       .     S
C11   C5     0.62082       .     S
C6    C7     1.39064       .     S
C7    C6     1.39064       .     S
C6    C11    1.38985       .     S
C11   C6     1.38985       .     S
C7    C8     1.39106       .     S
C8    C7     1.39106       .     S
C8    C9     1.38916   1_655     S
C9    C8     1.38916   1_455     S
C9    C10    1.39063       .     S
C10   C9     1.39063       .     S
C10   C11    1.39040   1_455     S
C11   C10    1.39040   1_655     S
Br12  C22    1.89069       .     S
C22   Br12   1.89069       .     S
S13   O14    1.45972       .     S
O14   S13    1.45972       .     S
S13   C15    1.77798       .     S
C15   S13    1.77798       .     S
S13   O16    1.46275       .     S
O16   S13    1.46275       .     S
S13   O19    1.45578       .     S
O19   S13    1.45578       .     S
C15   C17    1.38074       .     S
C17   C15    1.38074       .     S
C15   C25    1.38654       .     S
C25   C15    1.38654       .     S
C17   H18    0.94995       .     S
H18   C17    0.94995       .     S
C17   C20    1.40677       .     S
C20   C17    1.40677       .     S
C20   H21    0.95005       .     S
H21   C20    0.95005       .     S
C20   C22    1.37061       .     S
C22   C20    1.37061       .     S
C22   C23    1.38454       .     S
C23   C22    1.38454       .     S
C23   H24    0.94908       .     S
H24   C23    0.94908       .     S
C23   C25    1.39725       .     S
C25   C23    1.39725       .     S
C25   H26    0.95026       .     S
H26   C25    0.95026       .     S
N27   H28    0.87982       .     S
H28   N27    0.87982       .     S
N27   H29    0.88008       .     S
H29   N27    0.88008       .     S
N27   C36    1.33676       .     S
C36   N27    1.33676       .     S
N30   H31    0.88006       .     S
H31   N30    0.88006       .     S
N30   H32    0.88055       .     S
H32   N30    0.88055       .     S
N30   C36    1.33025       .     S
C36   N30    1.33025       .     S
N33   H34    0.87970       .     S
H34   N33    0.87970       .     S
N33   H35    0.87936       .     S
H35   N33    0.87936       .     S
N33   C36    1.32694       .     S
C36   N33    1.32694       .     S
C1    C0     1.38995       .     S
C0    C1     1.38995       .     S
C5    C0     1.39083       .     S
C0    C5     1.39083       .     S
C6    C0     0.60060       .     S
C0    C6     0.60060       .     S
C11   C0     0.85578       .     S
C0    C11    0.85578       .     S
C2    C1     1.39087       .     S
C1    C2     1.39087       .     S
C6    C1     0.83445       .     S
C1    C6     0.83445       .     S
C7    C1     0.63278       .     S
C1    C7     0.63278       .     S
C3    C2     1.38948       .     S
C2    C3     1.38948       .     S
C7    C2     0.78445       .     S
C2    C7     0.78445       .     S
C8    C2     0.67916       .     S
C2    C8     0.67916       .     S
C4    C3     1.39016   1_455     S
C3    C4     1.39016   1_655     S
C8    C3     0.74755       .     S
C3    C8     0.74755       .     S
C9    C3     0.69002   1_455     S
C3    C9     0.69002   1_655     S
C5    C4     1.39062   1_655     S
C4    C5     1.39062   1_455     S
C9    C4     0.76740       .     S
C4    C9     0.76740       .     S
C10   C4     0.66281       .     S
C4    C10    0.66281       .     S
C10   C5     0.82395   1_455     S
C5    C10    0.82395   1_655     S
C11   C5     0.62082       .     S
C5    C11    0.62082       .     S
C7    C6     1.39064       .     S
C6    C7     1.39064       .     S
C11   C6     1.38985       .     S
C6    C11    1.38985       .     S
C8    C7     1.39106       .     S
C7    C8     1.39106       .     S
C9    C8     1.38916   1_455     S
C8    C9     1.38916   1_655     S
C10   C9     1.39063       .     S
C9    C10    1.39063       .     S
C11   C10    1.39040   1_655     S
C10   C11    1.39040   1_455     S
C22   Br12   1.89069       .     S
Br12  C22    1.89069       .     S
O14   S13    1.45972       .     S
S13   O14    1.45972       .     S
C15   S13    1.77798       .     S
S13   C15    1.77798       .     S
O16   S13    1.46275       .     S
S13   O16    1.46275       .     S
O19   S13    1.45578       .     S
S13   O19    1.45578       .     S
C17   C15    1.38074       .     S
C15   C17    1.38074       .     S
C25   C15    1.38654       .     S
C15   C25    1.38654       .     S
H18   C17    0.94995       .     S
C17   H18    0.94995       .     S
C20   C17    1.40677       .     S
C17   C20    1.40677       .     S
H21   C20    0.95005       .     S
C20   H21    0.95005       .     S
C22   C20    1.37061       .     S
C20   C22    1.37061       .     S
C23   C22    1.38454       .     S
C22   C23    1.38454       .     S
H24   C23    0.94908       .     S
C23   H24    0.94908       .     S
C25   C23    1.39725       .     S
C23   C25    1.39725       .     S
H26   C25    0.95026       .     S
C25   H26    0.95026       .     S
H28   N27    0.87982       .     S
N27   H28    0.87982       .     S
H29   N27    0.88008       .     S
N27   H29    0.88008       .     S
C36   N27    1.33676       .     S
N27   C36    1.33676       .     S
H31   N30    0.88006       .     S
N30   H31    0.88006       .     S
H32   N30    0.88055       .     S
N30   H32    0.88055       .     S
C36   N30    1.33025       .     S
N30   C36    1.33025       .     S
H34   N33    0.87970       .     S
N33   H34    0.87970       .     S
H35   N33    0.87936       .     S
N33   H35    0.87936       .     S
C36   N33    1.32694       .     S
N33   C36    1.32694       .     S
