data_I
_chemical_name_common  '/data/user2/wty/HOF/MOFDiff/mofdiff/data/test/2_g4ibs'
_cell_length_a 22.52700
_cell_length_b  7.55500
_cell_length_c  6.76500
_cell_angle_alpha 90.00000
_cell_angle_beta  90.00000
_cell_angle_gamma 90.00000
_space_group_name_H-M_alt      'P 1'


loop_
_space_group_symop_operation_xyz
  'x, y, z' 

loop_
_atom_site_label
_atom_site_fract_x
_atom_site_fract_y
_atom_site_fract_z
_atom_site_type_symbol
I0     0.59106     0.25  0.42496     I
S1     0.35899     0.25   0.0229     S
O2     0.30557     0.25   0.9024     O
O3     0.36414   0.0904   0.1439     O
C4      0.4205   0.2217   0.8602     C
C5      0.4749   0.1664   0.9289     C
H6       0.479   0.1264   0.0613     H
C7      0.5233   0.1693   0.8044     C
H8      0.5601   0.1189   0.8443     H
C9      0.5171     0.25   0.6133     C
C10     0.4633   0.2876   0.5448     C
H11     0.4581   0.3164   0.4092     H
C12     0.4145   0.2847   0.6712     C
H13     0.3771   0.3263   0.6265     H
N14     0.3197     0.75   0.0269     N
H15     0.3376   0.8509   0.0527     H
H16     0.3377   0.6491   0.0515     H
N17    0.23837    0.903   0.9142     N
H18     0.2022   0.9046   0.8651     H
H19     0.2569    0.003   0.9394     H
C20     0.2649     0.75   0.9503     C
loop_
_geom_bond_atom_site_label_1
_geom_bond_atom_site_label_2
_geom_bond_distance
_geom_bond_site_symmetry_2
_ccdc_geom_bond_type
H15   O3     2.00302   1_565     S
O3    H15    2.00302   1_545     S
H19   O2     2.17876       .     S
O2    H19    2.17876       .     S
I0    C9     2.09744       .     S
C9    I0     2.09744       .     S
S1    O2     1.45351   1_554     S
O2    S1     1.45351   1_556     S
S1    O3     1.46199       .     S
O3    S1     1.46199       .     S
S1    C4     1.78246   1_554     S
C4    S1     1.78246   1_556     S
C4    C5     1.37562       .     S
C5    C4     1.37562       .     S
C4    C12    1.37098       .     S
C12   C4     1.37098       .     S
C5    H6     0.94979   1_556     S
H6    C5     0.94979   1_554     S
C5    C7     1.37790       .     S
C7    C5     1.37790       .     S
C7    H8     0.95136       .     S
H8    C7     0.95136       .     S
C7    C9     1.43615       .     S
C9    C7     1.43615       .     S
C9    C10    1.32826       .     S
C10   C9     1.32826       .     S
C10   H11    0.95003       .     S
H11   C10    0.95003       .     S
C10   C12    1.39290       .     S
C12   C10    1.39290       .     S
C12   H13    0.94871       .     S
H13   C12    0.94871       .     S
N14   H15    0.87986       .     S
H15   N14    0.87986       .     S
N14   H16    0.87933       .     S
H16   N14    0.87933       .     S
N14   C20    1.33883   1_554     S
C20   N14    1.33883   1_556     S
N17   H18    0.87999       .     S
H18   N17    0.87999       .     S
N17   H19    0.87982   1_565     S
H19   N17    0.87982   1_545     S
N17   C20    1.32399       .     S
C20   N17    1.32399       .     S
O3    H15    2.00302   1_545     S
H15   O3     2.00302   1_565     S
O2    H19    2.17876       .     S
H19   O2     2.17876       .     S
C9    I0     2.09744       .     S
I0    C9     2.09744       .     S
O2    S1     1.45351   1_556     S
S1    O2     1.45351   1_554     S
O3    S1     1.46199       .     S
S1    O3     1.46199       .     S
C4    S1     1.78246   1_556     S
S1    C4     1.78246   1_554     S
C5    C4     1.37562       .     S
C4    C5     1.37562       .     S
C12   C4     1.37098       .     S
C4    C12    1.37098       .     S
H6    C5     0.94979   1_554     S
C5    H6     0.94979   1_556     S
C7    C5     1.37790       .     S
C5    C7     1.37790       .     S
H8    C7     0.95136       .     S
C7    H8     0.95136       .     S
C9    C7     1.43615       .     S
C7    C9     1.43615       .     S
C10   C9     1.32826       .     S
C9    C10    1.32826       .     S
H11   C10    0.95003       .     S
C10   H11    0.95003       .     S
C12   C10    1.39290       .     S
C10   C12    1.39290       .     S
H13   C12    0.94871       .     S
C12   H13    0.94871       .     S
H15   N14    0.87986       .     S
N14   H15    0.87986       .     S
H16   N14    0.87933       .     S
N14   H16    0.87933       .     S
C20   N14    1.33883   1_556     S
N14   C20    1.33883   1_554     S
H18   N17    0.87999       .     S
N17   H18    0.87999       .     S
H19   N17    0.87982   1_545     S
N17   H19    0.87982   1_565     S
C20   N17    1.32399       .     S
N17   C20    1.32399       .     S
