data_I
_chemical_name_common  '/data/user2/wty/HOF/MOFDiff/mofdiff/data/test/2_g4ibs26'
_cell_length_a 21.33500
_cell_length_b 12.59580
_cell_length_c  7.44200
_cell_angle_alpha 90.00000
_cell_angle_beta  90.00000
_cell_angle_gamma 90.00000
_space_group_name_H-M_alt      'P 1'


loop_
_space_group_symop_operation_xyz
  'x, y, z' 

loop_
_atom_site_label
_atom_site_fract_x
_atom_site_fract_y
_atom_site_fract_z
_atom_site_type_symbol
N0     0.41886   0.4458   0.1396     N
N1     0.68753  0.15891   0.1211     N
C2     0.47345  0.38904   0.1391     C
C3     0.47614  0.28691   0.0599     C
H4      0.4396   0.2577   0.0063     H
C5     0.53088  0.22948   0.0593     C
H6      0.5314   0.1607   0.0071     H
C7     0.58596  0.27048   0.1343     C
C8       0.584  0.37123   0.2123     C
H9       0.621   0.4001   0.2641     H
C10    0.52947  0.42935   0.2152     C
H11     0.5293   0.4977   0.2692     H
C12    0.41524  0.54988   0.2193     C
H13     0.4214   0.5442   0.3495     H
H14      0.374   0.5808   0.1947     H
H15     0.4479   0.5954    0.168     H
C16    0.36245  0.40145   0.0591     C
H17     0.3707   0.3835   0.9331     H
H18     0.3285   0.4537   0.0654     H
H19     0.3502   0.3372   0.1245     H
C20    0.64275  0.20892   0.1279     C
I21    0.40224  0.90175  0.14307     I
S22    0.70706  0.80894   0.0901     S
O23    0.72154  0.74834  0.25273     O
C24    0.62555  0.83578   0.0986     C
O25    0.71749  0.74861  0.92662     O
C26    0.60401  0.92362   0.1922     C
H27     0.6328   0.9706   0.2484     H
O28    0.73832  0.91176  0.08838     O
C29    0.54004  0.94243   0.2032     C
H30     0.5248   0.0023   0.2672     H
C31    0.49893  0.87394    0.121     C
C32    0.52028   0.7871   0.0251     C
H33     0.4914   0.7415   0.9661     H
C34    0.58363  0.76723   0.0156     C
H35     0.5986   0.7068   0.9525     H
N36    0.26545  0.13138   0.0897     N
H37     0.2715   0.1648   0.1921     H
H38     0.2668   0.1667   0.9878     H
N39    0.25237  0.97476   0.2427     N
H40     0.2585   0.0083   0.3449     H
H41      0.245    0.906   0.2424     H
N42    0.24539  0.97751   0.9342     N
H43     0.2382   0.9087   0.9334     H
H44     0.2467    0.013   0.8324     H
C45    0.25431   0.0278    0.089     C
loop_
_geom_bond_atom_site_label_1
_geom_bond_atom_site_label_2
_geom_bond_distance
_geom_bond_site_symmetry_2
_ccdc_geom_bond_type
N0    C2     1.36661       .     S
C2    N0     1.36661       .     S
N0    C12    1.44098       .     S
C12   N0     1.44098       .     S
N0    C16    1.45581       .     S
C16   N0     1.45581       .     S
N1    C20    1.14547       .     S
C20   N1     1.14547       .     S
C2    C3     1.41617       .     S
C3    C2     1.41617       .     S
C2    C10    1.41669       .     S
C10   C2     1.41669       .     S
C3    H4     0.94986       .     S
H4    C3     0.94986       .     S
C3    C5     1.37377       .     S
C5    C3     1.37377       .     S
C5    H6     0.94951       .     S
H6    C5     0.94951       .     S
C5    C7     1.39970       .     S
C7    C5     1.39970       .     S
C7    C8     1.39611       .     S
C8    C7     1.39611       .     S
C7    C20    1.43928       .     S
C20   C7     1.43928       .     S
C8    H9     0.95078       .     S
H9    C8     0.95078       .     S
C8    C10    1.37473       .     S
C10   C8     1.37473       .     S
C10   H11    0.95011       .     S
H11   C10    0.95011       .     S
C12   H13    0.98043       .     S
H13   C12    0.98043       .     S
C12   H14    0.97946       .     S
H14   C12    0.97946       .     S
C12   H15    0.97981       .     S
H15   C12    0.97981       .     S
C16   H17    0.98049   1_554     S
H17   C16    0.98049   1_556     S
C16   H18    0.97978       .     S
H18   C16    0.97978       .     S
C16   H19    0.97986       .     S
H19   C16    0.97986       .     S
I21   C31    2.09885       .     S
C31   I21    2.09885       .     S
S22   O23    1.46386       .     S
O23   S22    1.46386       .     S
S22   C24    1.77270       .     S
C24   S22    1.77270       .     S
S22   O25    1.45160   1_554     S
O25   S22    1.45160   1_556     S
S22   O28    1.45679       .     S
O28   S22    1.45679       .     S
C24   C26    1.38584       .     S
C26   C24    1.38584       .     S
C24   C34    1.38815       .     S
C34   C24    1.38815       .     S
C26   H27    0.94994       .     S
H27   C26    0.94994       .     S
C26   C29    1.38763       .     S
C29   C26    1.38763       .     S
C29   H30    0.94934   1_565     S
H30   C29    0.94934   1_545     S
C29   C31    1.37394       .     S
C31   C29    1.37394       .     S
C31   C32    1.38321       .     S
C32   C31    1.38321       .     S
C32   H33    0.94991   1_554     S
H33   C32    0.94991   1_556     S
C32   C34    1.37637       .     S
C34   C32    1.37637       .     S
C34   H35    0.94968   1_554     S
H35   C34    0.94968   1_556     S
N36   H37    0.88011       .     S
H37   N36    0.88011       .     S
N36   H38    0.87968   1_554     S
H38   N36    0.87968   1_556     S
N36   C45    1.32615       .     S
C45   N36    1.32615       .     S
N39   H40    0.87980   1_565     S
H40   N39    0.87980   1_545     S
N39   H41    0.88025       .     S
H41   N39    0.88025       .     S
N39   C45    1.32529   1_565     S
C45   N39    1.32529   1_545     S
N42   H43    0.88021       .     S
H43   N42    0.88021       .     S
N42   H44    0.88009   1_565     S
H44   N42    0.88009   1_545     S
N42   C45    1.32839   1_566     S
C45   N42    1.32839   1_544     S
C2    N0     1.36661       .     S
N0    C2     1.36661       .     S
C12   N0     1.44098       .     S
N0    C12    1.44098       .     S
C16   N0     1.45581       .     S
N0    C16    1.45581       .     S
C20   N1     1.14547       .     S
N1    C20    1.14547       .     S
C3    C2     1.41617       .     S
C2    C3     1.41617       .     S
C10   C2     1.41669       .     S
C2    C10    1.41669       .     S
H4    C3     0.94986       .     S
C3    H4     0.94986       .     S
C5    C3     1.37377       .     S
C3    C5     1.37377       .     S
H6    C5     0.94951       .     S
C5    H6     0.94951       .     S
C7    C5     1.39970       .     S
C5    C7     1.39970       .     S
C8    C7     1.39611       .     S
C7    C8     1.39611       .     S
C20   C7     1.43928       .     S
C7    C20    1.43928       .     S
H9    C8     0.95078       .     S
C8    H9     0.95078       .     S
C10   C8     1.37473       .     S
C8    C10    1.37473       .     S
H11   C10    0.95011       .     S
C10   H11    0.95011       .     S
H13   C12    0.98043       .     S
C12   H13    0.98043       .     S
H14   C12    0.97946       .     S
C12   H14    0.97946       .     S
H15   C12    0.97981       .     S
C12   H15    0.97981       .     S
H17   C16    0.98049   1_556     S
C16   H17    0.98049   1_554     S
H18   C16    0.97978       .     S
C16   H18    0.97978       .     S
H19   C16    0.97986       .     S
C16   H19    0.97986       .     S
C31   I21    2.09885       .     S
I21   C31    2.09885       .     S
O23   S22    1.46386       .     S
S22   O23    1.46386       .     S
C24   S22    1.77270       .     S
S22   C24    1.77270       .     S
O25   S22    1.45160   1_556     S
S22   O25    1.45160   1_554     S
O28   S22    1.45679       .     S
S22   O28    1.45679       .     S
C26   C24    1.38584       .     S
C24   C26    1.38584       .     S
C34   C24    1.38815       .     S
C24   C34    1.38815       .     S
H27   C26    0.94994       .     S
C26   H27    0.94994       .     S
C29   C26    1.38763       .     S
C26   C29    1.38763       .     S
H30   C29    0.94934   1_545     S
C29   H30    0.94934   1_565     S
C31   C29    1.37394       .     S
C29   C31    1.37394       .     S
C32   C31    1.38321       .     S
C31   C32    1.38321       .     S
H33   C32    0.94991   1_556     S
C32   H33    0.94991   1_554     S
C34   C32    1.37637       .     S
C32   C34    1.37637       .     S
H35   C34    0.94968   1_556     S
C34   H35    0.94968   1_554     S
H37   N36    0.88011       .     S
N36   H37    0.88011       .     S
H38   N36    0.87968   1_556     S
N36   H38    0.87968   1_554     S
C45   N36    1.32615       .     S
N36   C45    1.32615       .     S
H40   N39    0.87980   1_545     S
N39   H40    0.87980   1_565     S
H41   N39    0.88025       .     S
N39   H41    0.88025       .     S
C45   N39    1.32529   1_545     S
N39   C45    1.32529   1_565     S
H43   N42    0.88021       .     S
N42   H43    0.88021       .     S
H44   N42    0.88009   1_545     S
N42   H44    0.88009   1_565     S
C45   N42    1.32839   1_544     S
N42   C45    1.32839   1_566     S
