data_I
_chemical_name_common  '/data/user2/wty/HOF/MOFDiff/mofdiff/data/test/2_g4nbs055'
_cell_length_a 22.98190
_cell_length_b  7.42700
_cell_length_c 19.00670
_cell_angle_alpha 90.00000
_cell_angle_beta  114.42600
_cell_angle_gamma 90.00000
_space_group_name_H-M_alt      'P 1'


loop_
_space_group_symop_operation_xyz
  'x, y, z' 

loop_
_atom_site_label
_atom_site_fract_x
_atom_site_fract_y
_atom_site_fract_z
_atom_site_type_symbol
S0     0.14891  0.24422   0.3261     S
O1     0.20117   0.2478  0.30178     O
O2     0.15059   0.0847  0.37165     O
N3     0.90642   0.1537   0.0416     N
O4     0.14339   0.4082  0.36481     O
O5     0.90712   0.0518  0.99117     O
C6     0.07729   0.2255    0.241     C
O7     0.85919   0.2368  0.03675     O
C8      0.0766   0.1153   0.1814     C
H9      0.1146   0.0556    0.186     H
C10     0.0209   0.0924   0.1153     C
H11     0.0202   0.0197   0.0739     H
C12    0.96617   0.1783   0.1114     C
C13     0.9659   0.2869   0.1689     C
H14     0.9277    0.346    0.164     H
C15     0.0222   0.3102   0.2349     C
H16     0.0226   0.3846   0.2758     H
N17    0.23242   0.1096   0.0329     N
H18     0.2036   0.1124   0.9848     H
H19     0.2467   0.0056   0.0558     H
N20    0.29821   0.2569   0.1433     N
H21     0.3132   0.3577   0.1686     H
H22     0.3124   0.1526   0.1659     H
N23    0.23316   0.4177   0.0373     N
H24     0.2044    0.421   0.9892     H
H25     0.2478   0.5185   0.0627     H
C26     0.2543    0.262   0.0711     C
S27    0.35136  0.75842  0.17753     S
O28     0.2991   0.7682  0.10101     O
C29     0.4227   0.7363   0.1633     C
O30    0.35763   0.9212  0.22337     O
C31     0.4775   0.8221   0.2123     C
H32      0.477   0.8975   0.2524     H
O33    0.34788   0.5972  0.21992     O
C34     0.5339   0.7976   0.2026     C
H35     0.5722   0.8566   0.2355     H
O36     0.5916   0.5516  0.08459     O
C37     0.5325   0.6856   0.1442     C
O38    0.64019   0.7432  0.17698     O
C39     0.4781   0.5996   0.0942     C
H40     0.4786   0.5259   0.0537     H
C41    0.42205   0.6239   0.1047     C
H42     0.3838   0.5641   0.0721     H
N43    0.59221   0.6592   0.1349     N
C44     0.4966   0.8867   0.9418     C
H45     0.4939   0.8094   0.9007     H
C46      0.555   0.9554   0.9911     C
C47     0.5589   0.0703   0.0483     C
H48     0.5988    0.121   0.0813     H
C49     0.6158   0.9054   0.9811     C
H50     0.6418   0.0136    0.987     H
H51     0.6042    0.854   0.9296     H
H52     0.6402   0.8168   0.0205     H
N53    0.26791   0.5883   0.3041     N
H54     0.2971   0.5859   0.2854     H
H55     0.2532   0.4868   0.3144     H
N56    0.20195   0.7442   0.3452     N
H57     0.1869   0.8466   0.3541     H
H58     0.1878   0.6414   0.3551     H
N59    0.26731   0.8978   0.3017     N
H60     0.2965   0.8975    0.283     H
H61     0.2524   0.0006   0.3104     H
C62    0.24598   0.7448   0.3167     C
C63      0.057     0.54   0.0647     C
C64      0.998   0.6078   0.0567     C
H65     0.9957   0.6809   0.0965     H
C66     0.9435    0.571   0.9928     C
H67     0.9045   0.6245   0.9881     H
C68     0.1175    0.583   0.1342     C
H69     0.1369   0.4712   0.1611     H
H70     0.1076   0.6617   0.1692     H
H71     0.1475   0.6442   0.1175     H
loop_
_geom_bond_atom_site_label_1
_geom_bond_atom_site_label_2
_geom_bond_distance
_geom_bond_site_symmetry_2
_ccdc_geom_bond_type
H19   O28    2.10750   1_545     S
O28   H19    2.10750   1_565     S
H21   O33    2.02675       .     S
O33   H21    2.02675       .     S
H22   O30    2.07080   1_545     S
O30   H22    2.07080   1_565     S
H25   O28    2.15626       .     S
O28   H25    2.15626       .     S
H54   O33    2.02956       .     S
O33   H54    2.02956       .     S
H55   O1     2.09784       .     S
O1    H55    2.09784       .     S
H57   O2     2.04082   1_565     S
O2    H57    2.04082   1_545     S
H58   O4     2.05700       .     S
O4    H58    2.05700       .     S
H60   O30    2.14617       .     S
O30   H60    2.14617       .     S
H61   O1     2.15040       .     S
O1    H61    2.15040       .     S
S0    O1     1.45465       .     S
O1    S0     1.45465       .     S
S0    O2     1.45843       .     S
O2    S0     1.45843       .     S
S0    O4     1.45528       .     S
O4    S0     1.45528       .     S
S0    C6     1.77283       .     S
C6    S0     1.77283       .     S
N3    O5     1.22659   1_554     S
O5    N3     1.22659   1_556     S
N3    O7     1.21854       .     S
O7    N3     1.21854       .     S
N3    C12    1.47390       .     S
C12   N3     1.47390       .     S
C6    C8     1.39230       .     S
C8    C6     1.39230       .     S
C6    C15    1.37503       .     S
C15   C6     1.37503       .     S
C8    H9     0.95067       .     S
H9    C8     0.95067       .     S
C8    C10    1.38416       .     S
C10   C8     1.38416       .     S
C10   H11    0.94895       .     S
H11   C10    0.94895       .     S
C10   C12    1.38472   1_455     S
C12   C10    1.38472   1_655     S
C12   C13    1.36037       .     S
C13   C12    1.36037       .     S
C13   H14    0.95102       .     S
H14   C13    0.95102       .     S
C13   C15    1.39116   1_655     S
C15   C13    1.39116   1_455     S
C15   H16    0.95069       .     S
H16   C15    0.95069       .     S
N17   H18    0.87985   1_554     S
H18   N17    0.87985   1_556     S
N17   H19    0.88070       .     S
H19   N17    0.88070       .     S
N17   C26    1.32635       .     S
C26   N17    1.32635       .     S
N20   H21    0.87942       .     S
H21   N20    0.87942       .     S
N20   H22    0.88038       .     S
H22   N20    0.88038       .     S
N20   C26    1.32577       .     S
C26   N20    1.32577       .     S
N23   H24    0.87950   1_554     S
H24   N23    0.87950   1_556     S
N23   H25    0.87886       .     S
H25   N23    0.87886       .     S
N23   C26    1.31447       .     S
C26   N23    1.31447       .     S
S27   O28    1.45546       .     S
O28   S27    1.45546       .     S
S27   C29    1.77621       .     S
C29   S27    1.77621       .     S
S27   O30    1.46207       .     S
O30   S27    1.46207       .     S
S27   O33    1.46375       .     S
O33   S27    1.46375       .     S
C29   C31    1.37459       .     S
C31   C29    1.37459       .     S
C29   C41    1.38704       .     S
C41   C29    1.38704       .     S
C31   H32    0.94967       .     S
H32   C31    0.94967       .     S
C31   C34    1.39457       .     S
C34   C31    1.39457       .     S
C34   H35    0.95005       .     S
H35   C34    0.95005       .     S
C34   C37    1.37678       .     S
C37   C34    1.37678       .     S
O36   N43    1.24182       .     S
N43   O36    1.24182       .     S
C37   C39    1.37533       .     S
C39   C37    1.37533       .     S
C37   N43    1.46743       .     S
N43   C37    1.46743       .     S
O38   N43    1.23102       .     S
N43   O38    1.23102       .     S
C39   H40    0.94848       .     S
H40   C39    0.94848       .     S
C39   C41    1.39438       .     S
C41   C39    1.39438       .     S
C41   H42    0.95050       .     S
H42   C41    0.95050       .     S
C44   H45    0.95058       .     S
H45   C44    0.95058       .     S
C44   C46    1.37826       .     S
C46   C44    1.37826       .     S
C46   C47    1.35560   1_566     S
C47   C46    1.35560   1_544     S
C46   C49    1.53170       .     S
C49   C46    1.53170       .     S
C47   H48    0.94888       .     S
H48   C47    0.94888       .     S
C49   H50    0.97978   1_565     S
H50   C49    0.97978   1_545     S
C49   H51    0.97935       .     S
H51   C49    0.97935       .     S
C49   H52    0.98028   1_556     S
H52   C49    0.98028   1_554     S
N53   H54    0.87970       .     S
H54   N53    0.87970       .     S
N53   H55    0.88069       .     S
H55   N53    0.88069       .     S
N53   C62    1.32747       .     S
C62   N53    1.32747       .     S
N56   H57    0.88036       .     S
H57   N56    0.88036       .     S
N56   H58    0.88016       .     S
H58   N56    0.88016       .     S
N56   C62    1.33068       .     S
C62   N56    1.33068       .     S
N59   H60    0.87952       .     S
H60   N59    0.87952       .     S
N59   H61    0.88008   1_565     S
H61   N59    0.88008   1_545     S
N59   C62    1.31469       .     S
C62   N59    1.31469       .     S
C63   C64    1.39453   1_455     S
C64   C63    1.39453   1_655     S
C63   C68    1.50372       .     S
C68   C63    1.50372       .     S
C64   H65    0.95019       .     S
H65   C64    0.95019       .     S
C64   C66    1.36399   1_554     S
C66   C64    1.36399   1_556     S
C66   H67    0.95026       .     S
H67   C66    0.95026       .     S
C68   H69    0.98037       .     S
H69   C68    0.98037       .     S
C68   H70    0.98037       .     S
H70   C68    0.98037       .     S
C68   H71    0.98168       .     S
H71   C68    0.98168       .     S
O28   H19    2.10750   1_565     S
H19   O28    2.10750   1_545     S
O33   H21    2.02675       .     S
H21   O33    2.02675       .     S
O30   H22    2.07080   1_565     S
H22   O30    2.07080   1_545     S
O28   H25    2.15626       .     S
H25   O28    2.15626       .     S
O33   H54    2.02956       .     S
H54   O33    2.02956       .     S
O1    H55    2.09784       .     S
H55   O1     2.09784       .     S
O2    H57    2.04082   1_545     S
H57   O2     2.04082   1_565     S
O4    H58    2.05700       .     S
H58   O4     2.05700       .     S
O30   H60    2.14617       .     S
H60   O30    2.14617       .     S
O1    H61    2.15040       .     S
H61   O1     2.15040       .     S
O1    S0     1.45465       .     S
S0    O1     1.45465       .     S
O2    S0     1.45843       .     S
S0    O2     1.45843       .     S
O4    S0     1.45528       .     S
S0    O4     1.45528       .     S
C6    S0     1.77283       .     S
S0    C6     1.77283       .     S
O5    N3     1.22659   1_556     S
N3    O5     1.22659   1_554     S
O7    N3     1.21854       .     S
N3    O7     1.21854       .     S
C12   N3     1.47390       .     S
N3    C12    1.47390       .     S
C8    C6     1.39230       .     S
C6    C8     1.39230       .     S
C15   C6     1.37503       .     S
C6    C15    1.37503       .     S
H9    C8     0.95067       .     S
C8    H9     0.95067       .     S
C10   C8     1.38416       .     S
C8    C10    1.38416       .     S
H11   C10    0.94895       .     S
C10   H11    0.94895       .     S
C12   C10    1.38472   1_655     S
C10   C12    1.38472   1_455     S
C13   C12    1.36037       .     S
C12   C13    1.36037       .     S
H14   C13    0.95102       .     S
C13   H14    0.95102       .     S
C15   C13    1.39116   1_455     S
C13   C15    1.39116   1_655     S
H16   C15    0.95069       .     S
C15   H16    0.95069       .     S
H18   N17    0.87985   1_556     S
N17   H18    0.87985   1_554     S
H19   N17    0.88070       .     S
N17   H19    0.88070       .     S
C26   N17    1.32635       .     S
N17   C26    1.32635       .     S
H21   N20    0.87942       .     S
N20   H21    0.87942       .     S
H22   N20    0.88038       .     S
N20   H22    0.88038       .     S
C26   N20    1.32577       .     S
N20   C26    1.32577       .     S
H24   N23    0.87950   1_556     S
N23   H24    0.87950   1_554     S
H25   N23    0.87886       .     S
N23   H25    0.87886       .     S
C26   N23    1.31447       .     S
N23   C26    1.31447       .     S
O28   S27    1.45546       .     S
S27   O28    1.45546       .     S
C29   S27    1.77621       .     S
S27   C29    1.77621       .     S
O30   S27    1.46207       .     S
S27   O30    1.46207       .     S
O33   S27    1.46375       .     S
S27   O33    1.46375       .     S
C31   C29    1.37459       .     S
C29   C31    1.37459       .     S
C41   C29    1.38704       .     S
C29   C41    1.38704       .     S
H32   C31    0.94967       .     S
C31   H32    0.94967       .     S
C34   C31    1.39457       .     S
C31   C34    1.39457       .     S
H35   C34    0.95005       .     S
C34   H35    0.95005       .     S
C37   C34    1.37678       .     S
C34   C37    1.37678       .     S
N43   O36    1.24182       .     S
O36   N43    1.24182       .     S
C39   C37    1.37533       .     S
C37   C39    1.37533       .     S
N43   C37    1.46743       .     S
C37   N43    1.46743       .     S
N43   O38    1.23102       .     S
O38   N43    1.23102       .     S
H40   C39    0.94848       .     S
C39   H40    0.94848       .     S
C41   C39    1.39438       .     S
C39   C41    1.39438       .     S
H42   C41    0.95050       .     S
C41   H42    0.95050       .     S
H45   C44    0.95058       .     S
C44   H45    0.95058       .     S
C46   C44    1.37826       .     S
C44   C46    1.37826       .     S
C47   C46    1.35560   1_544     S
C46   C47    1.35560   1_566     S
C49   C46    1.53170       .     S
C46   C49    1.53170       .     S
H48   C47    0.94888       .     S
C47   H48    0.94888       .     S
H50   C49    0.97978   1_545     S
C49   H50    0.97978   1_565     S
H51   C49    0.97935       .     S
C49   H51    0.97935       .     S
H52   C49    0.98028   1_554     S
C49   H52    0.98028   1_556     S
H54   N53    0.87970       .     S
N53   H54    0.87970       .     S
H55   N53    0.88069       .     S
N53   H55    0.88069       .     S
C62   N53    1.32747       .     S
N53   C62    1.32747       .     S
H57   N56    0.88036       .     S
N56   H57    0.88036       .     S
H58   N56    0.88016       .     S
N56   H58    0.88016       .     S
C62   N56    1.33068       .     S
N56   C62    1.33068       .     S
H60   N59    0.87952       .     S
N59   H60    0.87952       .     S
H61   N59    0.88008   1_545     S
N59   H61    0.88008   1_565     S
C62   N59    1.31469       .     S
N59   C62    1.31469       .     S
C64   C63    1.39453   1_655     S
C63   C64    1.39453   1_455     S
C68   C63    1.50372       .     S
C63   C68    1.50372       .     S
H65   C64    0.95019       .     S
C64   H65    0.95019       .     S
C66   C64    1.36399   1_556     S
C64   C66    1.36399   1_554     S
H67   C66    0.95026       .     S
C66   H67    0.95026       .     S
H69   C68    0.98037       .     S
C68   H69    0.98037       .     S
H70   C68    0.98037       .     S
C68   H70    0.98037       .     S
H71   C68    0.98168       .     S
C68   H71    0.98168       .     S
