data_I
_chemical_name_common  '/data/user2/wty/HOF/MOFDiff/mofdiff/data/test/2_g4nbs'
_cell_length_a 11.25440
_cell_length_b  7.74740
_cell_length_c 13.09490
_cell_angle_alpha 90.00000
_cell_angle_beta  110.85000
_cell_angle_gamma 90.00000
_space_group_name_H-M_alt      'P 1'


loop_
_space_group_symop_operation_xyz
  'x, y, z' 

loop_
_atom_site_label
_atom_site_fract_x
_atom_site_fract_y
_atom_site_fract_z
_atom_site_type_symbol
S0     0.77005  0.13666  0.82171     S
O1     0.72974   0.0618  0.71296     O
N2     0.30476  0.21429  0.93878     N
C3     0.63032  0.15713  0.85507     C
O4     0.81934   0.3104  0.82514     O
C5     0.51914   0.0743  0.79319     C
H6      0.5165   0.0071   0.7336     H
O7     0.85527  0.02655  0.90457     O
C8     0.41115    0.092  0.82069     C
H9      0.3353   0.0381   0.7797     H
O10     0.2051  0.14911  0.87932     O
C11    0.41947   0.1916  0.91021     C
O12    0.31476   0.2996  0.02015     O
C13    0.53008   0.2737  0.97394     C
H14      0.533   0.3382   0.0347     H
C15    0.63628   0.2572   0.9449     C
H16     0.7115    0.313   0.9854     H
N17    0.91175  0.66463  0.91004     N
H18     0.8776   0.5691   0.9188     H
H19     0.8827   0.7612   0.9237     H
N20    0.06357  0.80994    0.865     N
H21     0.1281   0.8089   0.8444     H
H22     0.0345   0.9064   0.8787     H
N23    0.05361  0.51464  0.85464     N
H24     0.0195   0.4191   0.8634     H
H25     0.1168   0.5137   0.8323     H
C26    0.00897    0.663  0.87562     C
loop_
_geom_bond_atom_site_label_1
_geom_bond_atom_site_label_2
_geom_bond_distance
_geom_bond_site_symmetry_2
_ccdc_geom_bond_type
H18   O4     2.31921       .     S
O4    H18    2.31921       .     S
H19   O7     2.08067   1_565     S
O7    H19    2.08067   1_545     S
H22   O7     2.35297   1_465     S
O7    H22    2.35297   1_645     S
H24   O4     2.28722   1_455     S
O4    H24    2.28722   1_655     S
S0    O1     1.45268       .     S
O1    S0     1.45268       .     S
S0    C3     1.78270       .     S
C3    S0     1.78270       .     S
S0    O4     1.45045       .     S
O4    S0     1.45045       .     S
S0    O7     1.44365       .     S
O7    S0     1.44365       .     S
N2    O10    1.22377       .     S
O10   N2     1.22377       .     S
N2    C11    1.47694       .     S
C11   N2     1.47694       .     S
N2    O12    1.22454   1_556     S
O12   N2     1.22454   1_554     S
C3    C5     1.38287       .     S
C5    C3     1.38287       .     S
C3    C15    1.39036       .     S
C15   C3     1.39036       .     S
C5    H6     0.92970       .     S
H6    C5     0.92970       .     S
C5    C8     1.39181       .     S
C8    C5     1.39181       .     S
C8    H9     0.93007       .     S
H9    C8     0.93007       .     S
C8    C11    1.37849       .     S
C11   C8     1.37849       .     S
C11   C13    1.38245       .     S
C13   C11    1.38245       .     S
C13   H14    0.93018   1_556     S
H14   C13    0.93018   1_554     S
C13   C15    1.38313       .     S
C15   C13    1.38313       .     S
C15   H16    0.93017       .     S
H16   C15    0.93017       .     S
N17   H18    0.86024       .     S
H18   N17    0.86024       .     S
N17   H19    0.86039       .     S
H19   N17    0.86039       .     S
N17   C26    1.32346   1_655     S
C26   N17    1.32346   1_455     S
N20   H21    0.86007       .     S
H21   N20    0.86007       .     S
N20   H22    0.85993       .     S
H22   N20    0.85993       .     S
N20   C26    1.32428       .     S
C26   N20    1.32428       .     S
N23   H24    0.86009       .     S
H24   N23    0.86009       .     S
N23   H25    0.85993       .     S
H25   N23    0.85993       .     S
N23   C26    1.32184       .     S
C26   N23    1.32184       .     S
O4    H18    2.31921       .     S
H18   O4     2.31921       .     S
O7    H19    2.08067   1_545     S
H19   O7     2.08067   1_565     S
O7    H22    2.35297   1_645     S
H22   O7     2.35297   1_465     S
O4    H24    2.28722   1_655     S
H24   O4     2.28722   1_455     S
O1    S0     1.45268       .     S
S0    O1     1.45268       .     S
C3    S0     1.78270       .     S
S0    C3     1.78270       .     S
O4    S0     1.45045       .     S
S0    O4     1.45045       .     S
O7    S0     1.44365       .     S
S0    O7     1.44365       .     S
O10   N2     1.22377       .     S
N2    O10    1.22377       .     S
C11   N2     1.47694       .     S
N2    C11    1.47694       .     S
O12   N2     1.22454   1_554     S
N2    O12    1.22454   1_556     S
C5    C3     1.38287       .     S
C3    C5     1.38287       .     S
C15   C3     1.39036       .     S
C3    C15    1.39036       .     S
H6    C5     0.92970       .     S
C5    H6     0.92970       .     S
C8    C5     1.39181       .     S
C5    C8     1.39181       .     S
H9    C8     0.93007       .     S
C8    H9     0.93007       .     S
C11   C8     1.37849       .     S
C8    C11    1.37849       .     S
C13   C11    1.38245       .     S
C11   C13    1.38245       .     S
H14   C13    0.93018   1_554     S
C13   H14    0.93018   1_556     S
C15   C13    1.38313       .     S
C13   C15    1.38313       .     S
H16   C15    0.93017       .     S
C15   H16    0.93017       .     S
H18   N17    0.86024       .     S
N17   H18    0.86024       .     S
H19   N17    0.86039       .     S
N17   H19    0.86039       .     S
C26   N17    1.32346   1_455     S
N17   C26    1.32346   1_655     S
H21   N20    0.86007       .     S
N20   H21    0.86007       .     S
H22   N20    0.85993       .     S
N20   H22    0.85993       .     S
C26   N20    1.32428       .     S
N20   C26    1.32428       .     S
H24   N23    0.86009       .     S
N23   H24    0.86009       .     S
H25   N23    0.85993       .     S
N23   H25    0.85993       .     S
C26   N23    1.32184       .     S
N23   C26    1.32184       .     S
