data_I
_chemical_name_common  '/data/user2/wty/HOF/MOFDiff/mofdiff/data/test/2_g4ipbs0678'
_cell_length_a 19.11530
_cell_length_b 21.74500
_cell_length_c 14.12340
_cell_angle_alpha 90.00000
_cell_angle_beta  101.98700
_cell_angle_gamma 90.00000
_space_group_name_H-M_alt      'P 1'


loop_
_space_group_symop_operation_xyz
  'x, y, z' 

loop_
_atom_site_label
_atom_site_fract_x
_atom_site_fract_y
_atom_site_fract_z
_atom_site_type_symbol
S0     0.33597  0.69492  0.43472     S
C1     0.31973  0.61629  0.45007     C
O2     0.26576  0.72404   0.4145     O
C3      0.3383   0.5892   0.5369     C
H4      0.3642   0.6116   0.5905     H
O5     0.37146  0.70035  0.35314     O
C6      0.3195   0.5285   0.5483     C
H7      0.3337   0.5102   0.6103     H
C8       0.282  0.49426   0.4756     C
C9      0.2668  0.52136   0.3882     C
H10     0.2423   0.4983   0.3343     H
C11     0.2854  0.58132    0.374     C
H12     0.2743   0.5985   0.3108     H
O13    0.37956  0.71613  0.52531     O
C14     0.2553  0.42968   0.4964     C
H15     0.2918   0.4114   0.5502     H
C16     0.2466  0.38669   0.4123     C
H17      0.206   0.3998   0.3621     H
H18      0.238    0.345   0.4336     H
H19     0.2902    0.387   0.3861     H
C20     0.1858   0.4361   0.5327     C
H21     0.1488   0.4538   0.4814     H
H22     0.1937   0.4632   0.5894     H
H23     0.1704   0.3955   0.5506     H
N24    0.96741  0.74424  0.88203     N
H25     0.9912   0.7296   0.8399     H
H26     0.9902   0.7533   0.9412     H
N27    0.86118  0.77378  0.91983     N
H28     0.8146   0.7787   0.9028     H
H29     0.8837   0.7829    0.979     H
N30    0.86303  0.73915  0.76781     N
H31     0.8164   0.7442   0.7513     H
H32     0.8868   0.7251   0.7252     H
C33    0.89735  0.75267  0.85643     C
S34    0.67756  0.80268   0.7442     S
O35    0.71291  0.79832  0.84585     O
O36    0.60146  0.78974  0.72961     O
O37    0.71333  0.76572  0.68269     O
C38    0.68489  0.87984  0.70975     C
C39    0.74167   0.8979   0.6695     C
H40     0.7759   0.8687    0.658     H
C41     0.7479  0.95911   0.6464     C
H42     0.7866   0.9713    0.618     H
C43        0.7  0.00297    0.663     C
C44    0.64215  0.98344   0.7009     C
H45     0.6071   0.0124   0.7106     H
C46    0.63489  0.92233   0.7245     C
H47     0.5954   0.9097    0.751     H
C48     0.7117  0.06942   0.6387     C
H49     0.7164   0.0708   0.5695     H
C50     0.7834   0.0921   0.7009     C
H51     0.7813     0.09   0.7696     H
H52      0.792   0.1346   0.6836     H
H53     0.8224   0.0659   0.6889     H
C54      0.651   0.1126   0.6488     C
H55     0.6064   0.0983   0.6072     H
H56     0.6619   0.1542   0.6293     H
H57     0.6456   0.1131   0.7163     H
O58    0.93111  0.70334  0.61622     O
S59      0.004  0.67951  0.64077     S
O60    0.04411  0.70625   0.7304     O
O61    0.04057  0.68581   0.5604     O
C62    0.99591  0.60027  0.66261     C
C63     0.0316  0.55707   0.6189     C
H64     0.0615   0.5693   0.5764     H
C65     0.0228  0.49533   0.6382     C
H66     0.0464   0.4654   0.6072     H
C67     0.9807    0.476   0.7009     C
C68      0.946  0.52043   0.7442     C
H69     0.9167   0.5081   0.7875     H
C70    0.95301  0.58187   0.7259     C
H71     0.9287   0.6117   0.7562     H
C72     0.9718   0.4076   0.7193     C
H73     0.9459   0.4142   0.7731     H
C74     0.0288   0.3789   0.7762     C
H75      0.014   0.3385   0.7956     H
H76     0.0466   0.4039   0.8339     H
H77     0.0669   0.3737   0.7398     H
C78     0.9124   0.3788   0.6562     C
H79     0.9198   0.3798   0.5896     H
H80     0.8683   0.4009   0.6597     H
H81     0.9085    0.336   0.6763     H
C82     0.5457   0.9325   0.2748     C
C83     0.5569  0.94971   0.3695     C
C84     0.5634  0.01121   0.3957     C
H85     0.5702   0.0218   0.4623     H
C86    0.56031  0.05721   0.3287     C
C87     0.5496     0.04   0.2337     C
H88     0.5471   0.0712    0.186     H
C89     0.5424   0.9803   0.2041     C
H90     0.5353   0.9705   0.1372     H
C91     0.5376   0.8676   0.2449     C
H92     0.5825   0.8457   0.2697     H
H93      0.526   0.8651   0.1741     H
H94      0.499   0.8488   0.2711     H
C95     0.5628   0.9025   0.4484     C
H96     0.5747   0.9229   0.5116     H
H97     0.6004   0.8729    0.443     H
H98     0.5171   0.8809   0.4422     H
C99     0.5666  0.12438   0.3577     C
H100    0.5754   0.1491   0.3033     H
H101    0.6063   0.1296   0.4134     H
H102     0.522   0.1379   0.3751     H
C103    0.8736    0.047   0.4816     C
C104    0.8049   0.0511   0.4232     C
C105    0.7682   0.9968   0.3887     C
H106    0.7216   0.9999    0.349     H
C107     0.797     0.94   0.4102     C
C108    0.8639   0.9338   0.4655     C
H109    0.8853   0.8945   0.4796     H
C110    0.9002   0.9884    0.501     C
H111    0.9464   0.9844   0.5413     H
C112    0.9145   0.1046   0.5215     C
H113    0.8896    0.125   0.5668     H
H114    0.9174   0.1326   0.4681     H
H115    0.9629   0.0932   0.5553     H
C116    0.7749   0.1081   0.3997     C
H117    0.7262   0.1031   0.3618     H
H118    0.8037   0.1308   0.3615     H
H119    0.7736   0.1309   0.4591     H
C120    0.7514   0.8856   0.3698     C
H121    0.7753   0.8624   0.3261     H
H122    0.7049   0.9001    0.334     H
H123    0.7445   0.8589    0.423     H
N124   0.52886  0.74199  0.54417     N
H125    0.4823   0.7365   0.5345     H
H126    0.5528   0.7543   0.6011     H
N127   0.52655  0.71331  0.38798     N
H128      0.48   0.7079   0.3785     H
H129    0.5491   0.7065   0.3406     H
N130   0.63275  0.74014  0.48761     N
H131    0.6568   0.7526   0.5444     H
H132    0.6552   0.7333   0.4402     H
C133   0.56269  0.73177  0.47347     C
C134   0.22325  0.73934   0.6538     C
N135   0.18882  0.74836  0.72471     N
H136    0.1428   0.7404   0.7156     H
H137     0.212   0.7623    0.781     H
N138   0.29238  0.75219  0.66712     N
H139    0.3152   0.7467   0.6196     H
H140    0.3155   0.7662   0.7234     H
N141   0.18825  0.71836  0.56957     N
H142    0.1422   0.7104   0.5608     H
H143    0.2109   0.7123   0.5222     H
loop_
_geom_bond_atom_site_label_1
_geom_bond_atom_site_label_2
_geom_bond_distance
_geom_bond_site_symmetry_2
_ccdc_geom_bond_type
H25   O60    2.07897   1_655     S
O60   H25    2.07897   1_455     S
H28   O35    1.98948       .     S
O35   H28    1.98948       .     S
H31   O37    2.06075       .     S
O37   H31    2.06075       .     S
H32   O58    1.96262       .     S
O58   H32    1.96262       .     S
H125  O13    1.99100       .     S
O13   H125   1.99100       .     S
H126  O36    2.01297       .     S
O36   H126   2.01297       .     S
H128  O5     2.03746       .     S
O5    H128   2.03746       .     S
H131  O37    2.04624       .     S
O37   H131   2.04624       .     S
H136  O60    2.07792       .     S
O60   H136   2.07792       .     S
H139  O13    2.09985       .     S
O13   H139   2.09985       .     S
H142  O61    2.01381       .     S
O61   H142   2.01381       .     S
H143  O2     2.03499       .     S
O2    H143   2.03499       .     S
S0    C1     1.75920       .     S
C1    S0     1.75920       .     S
S0    O2     1.45757       .     S
O2    S0     1.45757       .     S
S0    O5     1.45821       .     S
O5    S0     1.45821       .     S
S0    O13    1.44953       .     S
O13   S0     1.44953       .     S
C1    C3     1.34018       .     S
C3    C1     1.34018       .     S
C1    C11    1.36758       .     S
C11   C1     1.36758       .     S
C3    H4     0.94855       .     S
H4    C3     0.94855       .     S
C3    C6     1.38611       .     S
C6    C3     1.38611       .     S
C6    H7     0.94872       .     S
H7    C6     0.94872       .     S
C6    C8     1.34786       .     S
C8    C6     1.34786       .     S
C8    C9     1.34403       .     S
C9    C8     1.34403       .     S
C8    C14    1.54308       .     S
C14   C8     1.54308       .     S
C9    H10    0.94983       .     S
H10   C9     0.94983       .     S
C9    C11    1.37704       .     S
C11   C9     1.37704       .     S
C11   H12    0.95008       .     S
H12   C11    0.95008       .     S
C14   H15    1.00097       .     S
H15   C14    1.00097       .     S
C14   C16    1.49342       .     S
C16   C14    1.49342       .     S
C14   C20    1.52650       .     S
C20   C14    1.52650       .     S
C16   H17    0.97862       .     S
H17   C16    0.97862       .     S
C16   H18    0.97974       .     S
H18   C16    0.97974       .     S
C16   H19    0.97963       .     S
H19   C16    0.97963       .     S
C20   H21    0.98003       .     S
H21   C20    0.98003       .     S
C20   H22    0.98036       .     S
H22   C20    0.98036       .     S
C20   H23    0.98026       .     S
H23   C20    0.98026       .     S
N24   H25    0.88011       .     S
H25   N24    0.88011       .     S
N24   H26    0.88076       .     S
H26   N24    0.88076       .     S
N24   C33    1.32541       .     S
C33   N24    1.32541       .     S
N27   H28    0.87928       .     S
H28   N27    0.87928       .     S
N27   H29    0.87953       .     S
H29   N27    0.87953       .     S
N27   C33    1.32200       .     S
C33   N27    1.32200       .     S
N30   H31    0.88011       .     S
H31   N30    0.88011       .     S
N30   H32    0.88064       .     S
H32   N30    0.88064       .     S
N30   C33    1.31996       .     S
C33   N30    1.31996       .     S
S34   O35    1.45729       .     S
O35   S34    1.45729       .     S
S34   O36    1.45369       .     S
O36   S34    1.45369       .     S
S34   O37    1.45426       .     S
O37   S34    1.45426       .     S
S34   C38    1.76064       .     S
C38   S34    1.76064       .     S
C38   C39    1.38264       .     S
C39   C38    1.38264       .     S
C38   C46    1.37596       .     S
C46   C38    1.37596       .     S
C39   H40    0.94964       .     S
H40   C39    0.94964       .     S
C39   C41    1.38143       .     S
C41   C39    1.38143       .     S
C41   H42    0.94955       .     S
H42   C41    0.94955       .     S
C41   C43    1.37554   1_565     S
C43   C41    1.37554   1_545     S
C43   C44    1.39125   1_545     S
C44   C43    1.39125   1_565     S
C43   C48    1.51248       .     S
C48   C43    1.51248       .     S
C44   H45    0.94992   1_565     S
H45   C44    0.94992   1_545     S
C44   C46    1.38397       .     S
C46   C44    1.38397       .     S
C46   H47    0.95009       .     S
H47   C46    0.95009       .     S
C48   H49    1.00032       .     S
H49   C48    1.00032       .     S
C48   C50    1.54702       .     S
C50   C48    1.54702       .     S
C48   C54    1.52218       .     S
C54   C48    1.52218       .     S
C50   H51    0.98047       .     S
H51   C50    0.98047       .     S
C50   H52    0.97851       .     S
H52   C50    0.97851       .     S
C50   H53    0.98059       .     S
H53   C50    0.98059       .     S
C54   H55    0.98013       .     S
H55   C54    0.98013       .     S
C54   H56    0.98050       .     S
H56   C54    0.98050       .     S
C54   H57    0.98004       .     S
H57   C54    0.98004       .     S
O58   S59    1.45924   1_655     S
S59   O58    1.45924   1_455     S
S59   O60    1.45782       .     S
O60   S59    1.45782       .     S
S59   O61    1.45790       .     S
O61   S59    1.45790       .     S
S59   C62    1.76291   1_455     S
C62   S59    1.76291   1_655     S
C62   C63    1.37982   1_655     S
C63   C62    1.37982   1_455     S
C62   C70    1.39142       .     S
C70   C62    1.39142       .     S
C63   H64    0.94878       .     S
H64   C63    0.94878       .     S
C63   C65    1.38710       .     S
C65   C63    1.38710       .     S
C65   H66    0.94912       .     S
H66   C65    0.94912       .     S
C65   C67    1.38004   1_455     S
C67   C65    1.38004   1_655     S
C67   C68    1.38414       .     S
C68   C67    1.38414       .     S
C67   C72    1.52547       .     S
C72   C67    1.52547       .     S
C68   H69    0.94965       .     S
H69   C68    0.94965       .     S
C68   C70    1.37262       .     S
C70   C68    1.37262       .     S
C70   H71    0.94996       .     S
H71   C70    0.94996       .     S
C72   H73    0.99966       .     S
H73   C72    0.99966       .     S
C72   C74    1.36336   1_655     S
C74   C72    1.36336   1_455     S
C72   C78    1.43364       .     S
C78   C72    1.43364       .     S
C74   H75    0.97932       .     S
H75   C74    0.97932       .     S
C74   H76    0.97991       .     S
H76   C74    0.97991       .     S
C74   H77    0.98133       .     S
H77   C74    0.98133       .     S
C78   H79    0.98006       .     S
H79   C78    0.98006       .     S
C78   H80    0.98047       .     S
H80   C78    0.98047       .     S
C78   H81    0.98036       .     S
H81   C78    0.98036       .     S
C82   C83    1.36228       .     S
C83   C82    1.36228       .     S
C82   C89    1.43361       .     S
C89   C82    1.43361       .     S
C82   C91    1.47200       .     S
C91   C82    1.47200       .     S
C83   C84    1.38625   1_565     S
C84   C83    1.38625   1_545     S
C83   C95    1.50204       .     S
C95   C83    1.50204       .     S
C84   H85    0.95074       .     S
H85   C84    0.95074       .     S
C84   C86    1.36976       .     S
C86   C84    1.36976       .     S
C86   C87    1.36678       .     S
C87   C86    1.36678       .     S
C86   C99    1.51497       .     S
C99   C86    1.51497       .     S
C87   H88    0.95029       .     S
H88   C87    0.95029       .     S
C87   C89    1.36201   1_545     S
C89   C87    1.36201   1_565     S
C89   H90    0.95043       .     S
H90   C89    0.95043       .     S
C91   H92    0.98042       .     S
H92   C91    0.98042       .     S
C91   H93    0.97974       .     S
H93   C91    0.97974       .     S
C91   H94    0.98076       .     S
H94   C91    0.98076       .     S
C95   H96    0.98026       .     S
H96   C95    0.98026       .     S
C95   H97    0.97952       .     S
H97   C95    0.97952       .     S
C95   H98    0.97960       .     S
H98   C95    0.97960       .     S
C99   H100   0.98042       .     S
H100  C99    0.98042       .     S
C99   H101   0.97962       .     S
H101  C99    0.97962       .     S
C99   H102   0.98014       .     S
H102  C99    0.98014       .     S
C103  C104   1.40103       .     S
C104  C103   1.40103       .     S
C103  C110   1.37822   1_545     S
C110  C103   1.37821   1_565     S
C103  C112   1.52137       .     S
C112  C103   1.52137       .     S
C104  C105   1.40775   1_545     S
C105  C104   1.40775   1_565     S
C104  C116   1.37704       .     S
C116  C104   1.37704       .     S
C105  H106   0.95128       .     S
H106  C105   0.95128       .     S
C105  C107   1.36065       .     S
C107  C105   1.36065       .     S
C107  C108   1.35966       .     S
C108  C107   1.35966       .     S
C107  C120   1.50933       .     S
C120  C107   1.50933       .     S
C108  H109   0.95050       .     S
H109  C108   0.95050       .     S
C108  C110   1.41350       .     S
C110  C108   1.41350       .     S
C110  H111   0.95008       .     S
H111  C110   0.95008       .     S
C112  H113   0.97936       .     S
H113  C112   0.97936       .     S
C112  H114   0.97977       .     S
H114  C112   0.97977       .     S
C112  H115   0.98073       .     S
H115  C112   0.98073       .     S
C116  H117   0.97876       .     S
H117  C116   0.97876       .     S
C116  H118   0.98039       .     S
H118  C116   0.98039       .     S
C116  H119   0.97923       .     S
H119  C116   0.97923       .     S
C120  H121   0.98045       .     S
H121  C120   0.98045       .     S
C120  H122   0.97901       .     S
H122  C120   0.97901       .     S
C120  H123   0.97990       .     S
H123  C120   0.97990       .     S
N124  H125   0.88007       .     S
H125  N124   0.88007       .     S
N124  H126   0.88018       .     S
H126  N124   0.88018       .     S
N124  C133   1.31637       .     S
C133  N124   1.31637       .     S
N127  H128   0.87980       .     S
H128  N127   0.87980       .     S
N127  H129   0.88053       .     S
H129  N127   0.88053       .     S
N127  C133   1.32278       .     S
C133  N127   1.32278       .     S
N130  H131   0.88029       .     S
H131  N130   0.88029       .     S
N130  H132   0.87977       .     S
H132  N130   0.87977       .     S
N130  C133   1.32492       .     S
C133  N130   1.32492       .     S
C134  N135   1.32226       .     S
N135  C134   1.32226       .     S
C134  N138   1.32530       .     S
N138  C134   1.32530       .     S
C134  N141   1.31921       .     S
N141  C134   1.31921       .     S
N135  H136   0.87940       .     S
H136  N135   0.87940       .     S
N135  H137   0.87973       .     S
H137  N135   0.87973       .     S
N138  H139   0.88123       .     S
H139  N138   0.88123       .     S
N138  H140   0.87978       .     S
H140  N138   0.87978       .     S
N141  H142   0.88027       .     S
H142  N141   0.88027       .     S
N141  H143   0.87905       .     S
H143  N141   0.87905       .     S
O60   H25    2.07897   1_455     S
H25   O60    2.07897   1_655     S
O35   H28    1.98948       .     S
H28   O35    1.98948       .     S
O37   H31    2.06075       .     S
H31   O37    2.06075       .     S
O58   H32    1.96262       .     S
H32   O58    1.96262       .     S
O13   H125   1.99100       .     S
H125  O13    1.99100       .     S
O36   H126   2.01297       .     S
H126  O36    2.01297       .     S
O5    H128   2.03746       .     S
H128  O5     2.03746       .     S
O37   H131   2.04624       .     S
H131  O37    2.04624       .     S
O60   H136   2.07792       .     S
H136  O60    2.07792       .     S
O13   H139   2.09985       .     S
H139  O13    2.09985       .     S
O61   H142   2.01381       .     S
H142  O61    2.01381       .     S
O2    H143   2.03499       .     S
H143  O2     2.03499       .     S
C1    S0     1.75920       .     S
S0    C1     1.75920       .     S
O2    S0     1.45757       .     S
S0    O2     1.45757       .     S
O5    S0     1.45821       .     S
S0    O5     1.45821       .     S
O13   S0     1.44953       .     S
S0    O13    1.44953       .     S
C3    C1     1.34018       .     S
C1    C3     1.34018       .     S
C11   C1     1.36758       .     S
C1    C11    1.36758       .     S
H4    C3     0.94855       .     S
C3    H4     0.94855       .     S
C6    C3     1.38611       .     S
C3    C6     1.38611       .     S
H7    C6     0.94872       .     S
C6    H7     0.94872       .     S
C8    C6     1.34786       .     S
C6    C8     1.34786       .     S
C9    C8     1.34403       .     S
C8    C9     1.34403       .     S
C14   C8     1.54308       .     S
C8    C14    1.54308       .     S
H10   C9     0.94983       .     S
C9    H10    0.94983       .     S
C11   C9     1.37704       .     S
C9    C11    1.37704       .     S
H12   C11    0.95008       .     S
C11   H12    0.95008       .     S
H15   C14    1.00097       .     S
C14   H15    1.00097       .     S
C16   C14    1.49342       .     S
C14   C16    1.49342       .     S
C20   C14    1.52650       .     S
C14   C20    1.52650       .     S
H17   C16    0.97862       .     S
C16   H17    0.97862       .     S
H18   C16    0.97974       .     S
C16   H18    0.97974       .     S
H19   C16    0.97963       .     S
C16   H19    0.97963       .     S
H21   C20    0.98003       .     S
C20   H21    0.98003       .     S
H22   C20    0.98036       .     S
C20   H22    0.98036       .     S
H23   C20    0.98026       .     S
C20   H23    0.98026       .     S
H25   N24    0.88011       .     S
N24   H25    0.88011       .     S
H26   N24    0.88076       .     S
N24   H26    0.88076       .     S
C33   N24    1.32541       .     S
N24   C33    1.32541       .     S
H28   N27    0.87928       .     S
N27   H28    0.87928       .     S
H29   N27    0.87953       .     S
N27   H29    0.87953       .     S
C33   N27    1.32200       .     S
N27   C33    1.32200       .     S
H31   N30    0.88011       .     S
N30   H31    0.88011       .     S
H32   N30    0.88064       .     S
N30   H32    0.88064       .     S
C33   N30    1.31996       .     S
N30   C33    1.31996       .     S
O35   S34    1.45729       .     S
S34   O35    1.45729       .     S
O36   S34    1.45369       .     S
S34   O36    1.45369       .     S
O37   S34    1.45426       .     S
S34   O37    1.45426       .     S
C38   S34    1.76064       .     S
S34   C38    1.76064       .     S
C39   C38    1.38264       .     S
C38   C39    1.38264       .     S
C46   C38    1.37596       .     S
C38   C46    1.37596       .     S
H40   C39    0.94964       .     S
C39   H40    0.94964       .     S
C41   C39    1.38143       .     S
C39   C41    1.38143       .     S
H42   C41    0.94955       .     S
C41   H42    0.94955       .     S
C43   C41    1.37554   1_545     S
C41   C43    1.37554   1_565     S
C44   C43    1.39125   1_565     S
C43   C44    1.39125   1_545     S
C48   C43    1.51248       .     S
C43   C48    1.51248       .     S
H45   C44    0.94992   1_545     S
C44   H45    0.94992   1_565     S
C46   C44    1.38397       .     S
C44   C46    1.38397       .     S
H47   C46    0.95009       .     S
C46   H47    0.95009       .     S
H49   C48    1.00032       .     S
C48   H49    1.00032       .     S
C50   C48    1.54702       .     S
C48   C50    1.54702       .     S
C54   C48    1.52218       .     S
C48   C54    1.52218       .     S
H51   C50    0.98047       .     S
C50   H51    0.98047       .     S
H52   C50    0.97851       .     S
C50   H52    0.97851       .     S
H53   C50    0.98059       .     S
C50   H53    0.98059       .     S
H55   C54    0.98013       .     S
C54   H55    0.98013       .     S
H56   C54    0.98050       .     S
C54   H56    0.98050       .     S
H57   C54    0.98004       .     S
C54   H57    0.98004       .     S
S59   O58    1.45924   1_455     S
O58   S59    1.45924   1_655     S
O60   S59    1.45782       .     S
S59   O60    1.45782       .     S
O61   S59    1.45790       .     S
S59   O61    1.45790       .     S
C62   S59    1.76291   1_655     S
S59   C62    1.76291   1_455     S
C63   C62    1.37982   1_455     S
C62   C63    1.37982   1_655     S
C70   C62    1.39142       .     S
C62   C70    1.39142       .     S
H64   C63    0.94878       .     S
C63   H64    0.94878       .     S
C65   C63    1.38710       .     S
C63   C65    1.38710       .     S
H66   C65    0.94912       .     S
C65   H66    0.94912       .     S
C67   C65    1.38004   1_655     S
C65   C67    1.38004   1_455     S
C68   C67    1.38414       .     S
C67   C68    1.38414       .     S
C72   C67    1.52547       .     S
C67   C72    1.52547       .     S
H69   C68    0.94965       .     S
C68   H69    0.94965       .     S
C70   C68    1.37262       .     S
C68   C70    1.37262       .     S
H71   C70    0.94996       .     S
C70   H71    0.94996       .     S
H73   C72    0.99966       .     S
C72   H73    0.99966       .     S
C74   C72    1.36336   1_455     S
C72   C74    1.36336   1_655     S
C78   C72    1.43364       .     S
C72   C78    1.43364       .     S
H75   C74    0.97932       .     S
C74   H75    0.97932       .     S
H76   C74    0.97991       .     S
C74   H76    0.97991       .     S
H77   C74    0.98133       .     S
C74   H77    0.98133       .     S
H79   C78    0.98006       .     S
C78   H79    0.98006       .     S
H80   C78    0.98047       .     S
C78   H80    0.98047       .     S
H81   C78    0.98036       .     S
C78   H81    0.98036       .     S
C83   C82    1.36228       .     S
C82   C83    1.36228       .     S
C89   C82    1.43361       .     S
C82   C89    1.43361       .     S
C91   C82    1.47200       .     S
C82   C91    1.47200       .     S
C84   C83    1.38625   1_545     S
C83   C84    1.38625   1_565     S
C95   C83    1.50204       .     S
C83   C95    1.50204       .     S
H85   C84    0.95074       .     S
C84   H85    0.95074       .     S
C86   C84    1.36976       .     S
C84   C86    1.36976       .     S
C87   C86    1.36678       .     S
C86   C87    1.36678       .     S
C99   C86    1.51497       .     S
C86   C99    1.51497       .     S
H88   C87    0.95029       .     S
C87   H88    0.95029       .     S
C89   C87    1.36201   1_565     S
C87   C89    1.36201   1_545     S
H90   C89    0.95043       .     S
C89   H90    0.95043       .     S
H92   C91    0.98042       .     S
C91   H92    0.98042       .     S
H93   C91    0.97974       .     S
C91   H93    0.97974       .     S
H94   C91    0.98076       .     S
C91   H94    0.98076       .     S
H96   C95    0.98026       .     S
C95   H96    0.98026       .     S
H97   C95    0.97952       .     S
C95   H97    0.97952       .     S
H98   C95    0.97960       .     S
C95   H98    0.97960       .     S
H100  C99    0.98042       .     S
C99   H100   0.98042       .     S
H101  C99    0.97962       .     S
C99   H101   0.97962       .     S
H102  C99    0.98014       .     S
C99   H102   0.98014       .     S
C104  C103   1.40103       .     S
C103  C104   1.40103       .     S
C110  C103   1.37821   1_565     S
C103  C110   1.37822   1_545     S
C112  C103   1.52137       .     S
C103  C112   1.52137       .     S
C105  C104   1.40775   1_565     S
C104  C105   1.40775   1_545     S
C116  C104   1.37704       .     S
C104  C116   1.37704       .     S
H106  C105   0.95128       .     S
C105  H106   0.95128       .     S
C107  C105   1.36065       .     S
C105  C107   1.36065       .     S
C108  C107   1.35966       .     S
C107  C108   1.35966       .     S
C120  C107   1.50933       .     S
C107  C120   1.50933       .     S
H109  C108   0.95050       .     S
C108  H109   0.95050       .     S
C110  C108   1.41350       .     S
C108  C110   1.41350       .     S
H111  C110   0.95008       .     S
C110  H111   0.95008       .     S
H113  C112   0.97936       .     S
C112  H113   0.97936       .     S
H114  C112   0.97977       .     S
C112  H114   0.97977       .     S
H115  C112   0.98073       .     S
C112  H115   0.98073       .     S
H117  C116   0.97876       .     S
C116  H117   0.97876       .     S
H118  C116   0.98039       .     S
C116  H118   0.98039       .     S
H119  C116   0.97923       .     S
C116  H119   0.97923       .     S
H121  C120   0.98045       .     S
C120  H121   0.98045       .     S
H122  C120   0.97901       .     S
C120  H122   0.97901       .     S
H123  C120   0.97990       .     S
C120  H123   0.97990       .     S
H125  N124   0.88007       .     S
N124  H125   0.88007       .     S
H126  N124   0.88018       .     S
N124  H126   0.88018       .     S
C133  N124   1.31637       .     S
N124  C133   1.31637       .     S
H128  N127   0.87980       .     S
N127  H128   0.87980       .     S
H129  N127   0.88053       .     S
N127  H129   0.88053       .     S
C133  N127   1.32278       .     S
N127  C133   1.32278       .     S
H131  N130   0.88029       .     S
N130  H131   0.88029       .     S
H132  N130   0.87977       .     S
N130  H132   0.87977       .     S
C133  N130   1.32492       .     S
N130  C133   1.32492       .     S
N135  C134   1.32226       .     S
C134  N135   1.32226       .     S
N138  C134   1.32530       .     S
C134  N138   1.32530       .     S
N141  C134   1.31921       .     S
C134  N141   1.31921       .     S
H136  N135   0.87940       .     S
N135  H136   0.87940       .     S
H137  N135   0.87973       .     S
N135  H137   0.87973       .     S
H139  N138   0.88123       .     S
N138  H139   0.88123       .     S
H140  N138   0.87978       .     S
N138  H140   0.87978       .     S
H142  N141   0.88027       .     S
N141  H142   0.88027       .     S
H143  N141   0.87905       .     S
N141  H143   0.87905       .     S
