data_I
_chemical_name_common  '/data/user2/wty/HOF/MOFDiff/mofdiff/data/test/2_g4fbs0514'
_cell_length_a  7.42880
_cell_length_b 15.81300
_cell_length_c 12.37930
_cell_angle_alpha 90.00000
_cell_angle_beta  90.60300
_cell_angle_gamma 90.00000
_space_group_name_H-M_alt      'P 1'


loop_
_space_group_symop_operation_xyz
  'x, y, z' 

loop_
_atom_site_label
_atom_site_fract_x
_atom_site_fract_y
_atom_site_fract_z
_atom_site_type_symbol
C0      0.4637    0.522   0.4733     C
C1      0.6191   0.5708   0.4776     C
H2       0.623   0.6237   0.4412     H
C3       0.769   0.5423   0.5351     C
H4      0.8752   0.5757    0.538     H
C5      0.7634    0.465   0.5883     C
H6      0.8658   0.4455   0.6276     H
C7      0.6079   0.4161    0.584     C
H8       0.604   0.3633   0.6204     H
C9       0.458   0.4446   0.5265     C
H10     0.3518   0.4112   0.5236     H
C11     0.3237   0.5639   0.4053     C
H12     0.3888   0.6145   0.3771     H
C13     0.1762   0.6039   0.4746     C
H14     0.0872   0.6316   0.4275     H
H15     0.2301   0.6458   0.5234     H
H16      0.117   0.5598    0.517     H
C17     0.2623   0.5238    0.309     C
H18     0.3659   0.5077   0.2652     H
H19     0.1854   0.5629    0.268     H
H20     0.1932   0.4731   0.3275     H
S21    0.19874   0.6816  0.85873     S
F22     0.3104  0.32232  0.95432     F
O23     0.0301  0.70443  0.91117     O
C24     0.2323  0.57257  0.88514     C
O25     0.3515   0.7256  0.90789     O
C26     0.2365  0.54536  0.99221     C
H27     0.2205   0.5848   0.0492     H
O28     0.1914  0.69172  0.74173     O
C29     0.2639  0.46096   0.0153     C
H30     0.2686   0.4417    0.088     H
C31     0.2842  0.40551   0.9315     C
C32     0.2804  0.42998   0.8257     C
H33     0.2957   0.3898   0.7694     H
C34     0.2538  0.51512   0.8023     C
H35     0.2503   0.5337   0.7293     H
N36     0.4638  0.25345  0.36038     N
H37     0.4643   0.2395   0.4292     H
H38     0.5661   0.2586   0.3257     H
N39     0.1547  0.25921  0.36014     N
H40     0.1541   0.2453    0.429     H
H41     0.0524   0.2681   0.3254     H
N42     0.3088  0.28692  0.20446     N
H43     0.2063   0.2952   0.1699     H
H44     0.4113    0.292     0.17     H
C45      0.309  0.26671  0.30888     C
loop_
_geom_bond_atom_site_label_1
_geom_bond_atom_site_label_2
_geom_bond_distance
_geom_bond_site_symmetry_2
_ccdc_geom_bond_type
C0    C1     1.38915       .     S
C1    C0     1.38915       .     S
C0    C9     1.39072       .     S
C9    C0     1.39072       .     S
C0    C11    1.48689       .     S
C11   C0     1.48689       .     S
C1    H2     0.95074       .     S
H2    C1     0.95074       .     S
C1    C3     1.39038       .     S
C3    C1     1.39038       .     S
C3    H4     0.94977       .     S
H4    C3     0.94977       .     S
C3    C5     1.38930       .     S
C5    C3     1.38930       .     S
C5    H6     0.95008       .     S
H6    C5     0.95008       .     S
C5    C7     1.39065       .     S
C7    C5     1.39065       .     S
C7    H8     0.94935       .     S
H8    C7     0.94935       .     S
C7    C9     1.39038       .     S
C9    C7     1.39038       .     S
C9    H10    0.94977       .     S
H10   C9     0.94977       .     S
C11   H12    0.99976       .     S
H12   C11    0.99976       .     S
C11   C13    1.53509       .     S
C13   C11    1.53509       .     S
C11   C17    1.42122       .     S
C17   C11    1.42122       .     S
C13   H14    0.98023       .     S
H14   C13    0.98023       .     S
C13   H15    0.97938       .     S
H15   C13    0.97938       .     S
C13   H16    0.97983       .     S
H16   C13    0.97983       .     S
C17   H18    0.97975       .     S
H18   C17    0.97975       .     S
C17   H19    0.97987       .     S
H19   C17    0.97987       .     S
C17   H20    0.98040       .     S
H20   C17    0.98040       .     S
S21   O23    1.46231       .     S
O23   S21    1.46231       .     S
S21   C24    1.77195       .     S
C24   S21    1.77195       .     S
S21   O25    1.45868       .     S
O25   S21    1.45868       .     S
S21   O28    1.45764       .     S
O28   S21    1.45764       .     S
F22   C31    1.35905       .     S
C31   F22    1.35905       .     S
C24   C26    1.39358       .     S
C26   C24    1.39358       .     S
C24   C34    1.38055       .     S
C34   C24    1.38055       .     S
C26   H27    0.95004   1_556     S
H27   C26    0.95004   1_554     S
C26   C29    1.37953   1_556     S
C29   C26    1.37953   1_554     S
C29   H30    0.95040       .     S
H30   C29    0.95040       .     S
C29   C31    1.36786   1_554     S
C31   C29    1.36786   1_556     S
C31   C32    1.36570       .     S
C32   C31    1.36570       .     S
C32   H33    0.95080       .     S
H33   C32    0.95080       .     S
C32   C34    1.39080       .     S
C34   C32    1.39080       .     S
C34   H35    0.95034       .     S
H35   C34    0.95034       .     S
N36   H37    0.88001       .     S
H37   N36    0.88001       .     S
N36   H38    0.88054       .     S
H38   N36    0.88054       .     S
N36   C45    1.32568       .     S
C45   N36    1.32568       .     S
N39   H40    0.88042       .     S
H40   N39    0.88042       .     S
N39   H41    0.88056       .     S
H41   N39    0.88056       .     S
N39   C45    1.32135       .     S
C45   N39    1.32135       .     S
N42   H43    0.87928       .     S
H43   N42    0.87928       .     S
N42   H44    0.88039       .     S
H44   N42    0.88039       .     S
N42   C45    1.33155       .     S
C45   N42    1.33155       .     S
C1    C0     1.38915       .     S
C0    C1     1.38915       .     S
C9    C0     1.39072       .     S
C0    C9     1.39072       .     S
C11   C0     1.48689       .     S
C0    C11    1.48689       .     S
H2    C1     0.95074       .     S
C1    H2     0.95074       .     S
C3    C1     1.39038       .     S
C1    C3     1.39038       .     S
H4    C3     0.94977       .     S
C3    H4     0.94977       .     S
C5    C3     1.38930       .     S
C3    C5     1.38930       .     S
H6    C5     0.95008       .     S
C5    H6     0.95008       .     S
C7    C5     1.39065       .     S
C5    C7     1.39065       .     S
H8    C7     0.94935       .     S
C7    H8     0.94935       .     S
C9    C7     1.39038       .     S
C7    C9     1.39038       .     S
H10   C9     0.94977       .     S
C9    H10    0.94977       .     S
H12   C11    0.99976       .     S
C11   H12    0.99976       .     S
C13   C11    1.53509       .     S
C11   C13    1.53509       .     S
C17   C11    1.42122       .     S
C11   C17    1.42122       .     S
H14   C13    0.98023       .     S
C13   H14    0.98023       .     S
H15   C13    0.97938       .     S
C13   H15    0.97938       .     S
H16   C13    0.97983       .     S
C13   H16    0.97983       .     S
H18   C17    0.97975       .     S
C17   H18    0.97975       .     S
H19   C17    0.97987       .     S
C17   H19    0.97987       .     S
H20   C17    0.98040       .     S
C17   H20    0.98040       .     S
O23   S21    1.46231       .     S
S21   O23    1.46231       .     S
C24   S21    1.77195       .     S
S21   C24    1.77195       .     S
O25   S21    1.45868       .     S
S21   O25    1.45868       .     S
O28   S21    1.45764       .     S
S21   O28    1.45764       .     S
C31   F22    1.35905       .     S
F22   C31    1.35905       .     S
C26   C24    1.39358       .     S
C24   C26    1.39358       .     S
C34   C24    1.38055       .     S
C24   C34    1.38055       .     S
H27   C26    0.95004   1_554     S
C26   H27    0.95004   1_556     S
C29   C26    1.37953   1_554     S
C26   C29    1.37953   1_556     S
H30   C29    0.95040       .     S
C29   H30    0.95040       .     S
C31   C29    1.36786   1_556     S
C29   C31    1.36786   1_554     S
C32   C31    1.36570       .     S
C31   C32    1.36570       .     S
H33   C32    0.95080       .     S
C32   H33    0.95080       .     S
C34   C32    1.39080       .     S
C32   C34    1.39080       .     S
H35   C34    0.95034       .     S
C34   H35    0.95034       .     S
H37   N36    0.88001       .     S
N36   H37    0.88001       .     S
H38   N36    0.88054       .     S
N36   H38    0.88054       .     S
C45   N36    1.32568       .     S
N36   C45    1.32568       .     S
H40   N39    0.88042       .     S
N39   H40    0.88042       .     S
H41   N39    0.88056       .     S
N39   H41    0.88056       .     S
C45   N39    1.32135       .     S
N39   C45    1.32135       .     S
H43   N42    0.87928       .     S
N42   H43    0.87928       .     S
H44   N42    0.88039       .     S
N42   H44    0.88039       .     S
C45   N42    1.33155       .     S
N42   C45    1.33155       .     S
