data_I
_chemical_name_common  '/data/user2/wty/HOF/MOFDiff/mofdiff/data/test/2_g4bbs22'
_cell_length_a 11.78080
_cell_length_b 22.57900
_cell_length_c  7.50230
_cell_angle_alpha 90.00000
_cell_angle_beta  90.00000
_cell_angle_gamma 90.00000
_space_group_name_H-M_alt      'P 1'


loop_
_space_group_symop_operation_xyz
  'x, y, z' 

loop_
_atom_site_label
_atom_site_fract_x
_atom_site_fract_y
_atom_site_fract_z
_atom_site_type_symbol
Br0    0.39355  0.91011  0.14433    Br
S1     0.34305  0.19072   0.2463     S
O2     0.40252  0.20638   0.4106     O
O3     0.39899  0.21623   0.0897     O
O4      0.2228  0.20478   0.2521     O
C5      0.3547  0.11313   0.2234     C
C6       0.454  0.08472   0.2755     C
H7      0.5138    0.107   0.3275     H
C8      0.4666  0.02456   0.2526     C
H9      0.5343   0.0051   0.2887     H
C10      0.378  0.99302   0.1753     C
C11     0.2795  0.02033   0.1227     C
H12     0.2201   0.9981   0.0693     H
C13     0.2678  0.08072   0.1485     C
H14     0.1994   0.0999   0.1144     H
N15    0.28917  0.21614   0.7473     N
H16     0.3221   0.2071   0.6455     H
H17      0.327   0.2127   0.8478     H
N18     0.1338  0.24856   0.9033     N
H19     0.1718   0.2452   0.0038     H
H20      0.063    0.261   0.9047     H
N21     0.1263  0.24001   0.5981     N
H22      0.159    0.231   0.4962     H
H23     0.0555   0.2525   0.5995     H
C24     0.1834  0.23478   0.7491     C
loop_
_geom_bond_atom_site_label_1
_geom_bond_atom_site_label_2
_geom_bond_distance
_geom_bond_site_symmetry_2
_ccdc_geom_bond_type
H16   O2     2.00088       .     S
O2    H16    2.00088       .     S
H17   O3     2.00478   1_556     S
O3    H17    2.00478   1_554     S
H19   O4     2.15963       .     S
O4    H19    2.15963       .     S
H22   O4     2.06618       .     S
O4    H22    2.06618       .     S
Br0   C10    1.89526       .     S
C10   Br0    1.89526       .     S
S1    O2     1.46125       .     S
O2    S1     1.46125       .     S
S1    O3     1.46505       .     S
O3    S1     1.46505       .     S
S1    O4     1.45243       .     S
O4    S1     1.45243       .     S
S1    C5     1.76565       .     S
C5    S1     1.76565       .     S
C5    C6     1.39024       .     S
C6    C5     1.39024       .     S
C5    C13    1.37816       .     S
C13   C5     1.37816       .     S
C6    H7     0.94951       .     S
H7    C6     0.94951       .     S
C6    C8     1.37720       .     S
C8    C6     1.37720       .     S
C8    H9     0.95001       .     S
H9    C8     0.95001       .     S
C8    C10    1.39030   1_545     S
C10   C8     1.39030   1_565     S
C10   C11    1.37205   1_565     S
C11   C10    1.37205   1_545     S
C11   H12    0.94980   1_545     S
H12   C11    0.94980   1_565     S
C11   C13    1.38410       .     S
C13   C11    1.38410       .     S
C13   H14    0.94990       .     S
H14   C13    0.94990       .     S
N15   H16    0.88060       .     S
H16   N15    0.88060       .     S
N15   H17    0.87928       .     S
H17   N15    0.87928       .     S
N15   C24    1.31528       .     S
C24   N15    1.31528       .     S
N18   H19    0.88014   1_556     S
H19   N18    0.88014   1_554     S
N18   H20    0.88017       .     S
H20   N18    0.88017       .     S
N18   C24    1.33288       .     S
C24   N18    1.33288       .     S
N21   H22    0.87990       .     S
H22   N21    0.87990       .     S
N21   H23    0.88053       .     S
H23   N21    0.88053       .     S
N21   C24    1.32280       .     S
C24   N21    1.32280       .     S
O2    H16    2.00088       .     S
H16   O2     2.00088       .     S
O3    H17    2.00478   1_554     S
H17   O3     2.00478   1_556     S
O4    H19    2.15963       .     S
H19   O4     2.15963       .     S
O4    H22    2.06618       .     S
H22   O4     2.06618       .     S
C10   Br0    1.89526       .     S
Br0   C10    1.89526       .     S
O2    S1     1.46125       .     S
S1    O2     1.46125       .     S
O3    S1     1.46505       .     S
S1    O3     1.46505       .     S
O4    S1     1.45243       .     S
S1    O4     1.45243       .     S
C5    S1     1.76565       .     S
S1    C5     1.76565       .     S
C6    C5     1.39024       .     S
C5    C6     1.39024       .     S
C13   C5     1.37816       .     S
C5    C13    1.37816       .     S
H7    C6     0.94951       .     S
C6    H7     0.94951       .     S
C8    C6     1.37720       .     S
C6    C8     1.37720       .     S
H9    C8     0.95001       .     S
C8    H9     0.95001       .     S
C10   C8     1.39030   1_565     S
C8    C10    1.39030   1_545     S
C11   C10    1.37205   1_545     S
C10   C11    1.37205   1_565     S
H12   C11    0.94980   1_565     S
C11   H12    0.94980   1_545     S
C13   C11    1.38410       .     S
C11   C13    1.38410       .     S
H14   C13    0.94990       .     S
C13   H14    0.94990       .     S
H16   N15    0.88060       .     S
N15   H16    0.88060       .     S
H17   N15    0.87928       .     S
N15   H17    0.87928       .     S
C24   N15    1.31528       .     S
N15   C24    1.31528       .     S
H19   N18    0.88014   1_554     S
N18   H19    0.88014   1_556     S
H20   N18    0.88017       .     S
N18   H20    0.88017       .     S
C24   N18    1.33288       .     S
N18   C24    1.33288       .     S
H22   N21    0.87990       .     S
N21   H22    0.87990       .     S
H23   N21    0.88053       .     S
N21   H23    0.88053       .     S
C24   N21    1.32280       .     S
N21   C24    1.32280       .     S
