data_I
_chemical_name_common  '/data/user2/wty/HOF/MOFDiff/mofdiff/data/test/2_g4mbs0516'
_cell_length_a 18.75700
_cell_length_b 23.47100
_cell_length_c  7.48650
_cell_angle_alpha 90.00000
_cell_angle_beta  90.00000
_cell_angle_gamma 90.00000
_space_group_name_H-M_alt      'P 1'


loop_
_space_group_symop_operation_xyz
  'x, y, z' 

loop_
_atom_site_label
_atom_site_fract_x
_atom_site_fract_y
_atom_site_fract_z
_atom_site_type_symbol
N0      0.4765  0.24429   0.4533     N
H1      0.4664   0.2612   0.5551     H
H2      0.4952   0.2099   0.4531     H
N3      0.4783  0.24454   0.1471     N
H4      0.4966     0.21   0.1471     H
H5      0.4697    0.262   0.0453     H
N6      0.4356  0.32181   0.3041     N
H7      0.4257   0.3382   0.4068     H
H8      0.4267   0.3397   0.2033     H
C9      0.4636  0.27043   0.3013     C
S10    0.09467  0.38144  0.29612     S
O11    0.17065  0.36822   0.2938     O
O12    0.06043  0.35928   0.4579     O
O13    0.05789  0.36302   0.1339     O
C14    0.08814   0.4567   0.3049     C
C15     0.0363  0.48468   0.2088     C
H16     0.0032   0.4638   0.1385     H
C17     0.0329  0.54374   0.2157     C
H18     0.9972   0.5632   0.1495     H
C19     0.0811  0.57477   0.3187     C
C20    0.13188  0.54535   0.4145     C
H21      0.165   0.5659   0.4858     H
C22    0.13563  0.48699    0.409     C
H23     0.1708   0.4675   0.4768     H
C24     0.0789  0.63935    0.317     C
H25     0.0867   0.6531   0.1949     H
H26     0.1164   0.6543   0.3952     H
H27     0.0323   0.6524   0.3597     H
N28     0.2413  0.35825   0.9486     N
H29     0.2882   0.3595   0.9483     H
H30      0.218   0.3586   0.0505     H
N31       0.24  0.35517    0.642     N
H32     0.2163   0.3539   0.5406     H
H33     0.2869    0.356   0.6411     H
N34    0.13528  0.35451   0.7957     N
H35     0.1115   0.3533   0.6944     H
H36     0.1122   0.3549    0.898     H
C37    0.20553  0.35576    0.794     C
S38     0.4366  0.35964  0.80212     S
O39    0.46954  0.30348   0.7984     O
C40    0.50634  0.40995   0.8012     C
O41    0.39449  0.36965   0.9635     O
C42     0.4993  0.46126   0.8901     C
H43     0.4568   0.4695   0.9539     H
O44     0.3948  0.37025   0.6404     O
C45      0.554  0.50039   0.8862     C
H46     0.5488   0.5352   0.9494     H
C47    0.61601  0.49027    0.793     C
C48     0.6218  0.43893   0.7027     C
H49     0.6638   0.4312    0.636     H
C50     0.5677  0.39846   0.7075     C
H51     0.5731   0.3632   0.6466     H
C52    0.67448  0.53414   0.7825     C
H53     0.6801   0.5467   0.6584     H
H54     0.7193   0.5174   0.8245     H
H55     0.6621   0.5669   0.8576     H
C56     0.2636  0.62423   0.7662     C
C57     0.3087   0.5802   0.7223     C
H58     0.3527   0.5898   0.6669     H
C59     0.2954   0.5252   0.7516     C
H60     0.3273   0.4962   0.7133     H
C61     0.2339   0.5127   0.8391     C
H62     0.2241   0.4738   0.8641     H
C63     0.1854   0.5522   0.8932     C
H64     0.1431   0.5415   0.9547     H
C65     0.2009   0.6114   0.8531     C
H66     0.1685   0.6407    0.886     H
C67      0.284   0.6863   0.7287     C
C68     0.3408   0.7054   0.8494     C
H69     0.3754   0.6746   0.8662     H
H70     0.3201   0.7159    0.965     H
H71     0.3648   0.7386   0.7975     H
C72     0.3018   0.6949   0.5399     C
H73     0.3144    0.735   0.5201     H
H74     0.2605    0.685   0.4658     H
H75     0.3422   0.6707   0.5075     H
C76     0.2214   0.7275   0.7614     C
H77     0.2075    0.726   0.8875     H
H78     0.1808   0.7163   0.6867     H
H79      0.236   0.7664   0.7308     H
loop_
_geom_bond_atom_site_label_1
_geom_bond_atom_site_label_2
_geom_bond_distance
_geom_bond_site_symmetry_2
_ccdc_geom_bond_type
H1    O39    2.07508       .     S
O39   H1     2.07508       .     S
H5    O39    2.08914   1_554     S
O39   H5     2.08914   1_556     S
H7    O44    1.99004       .     S
O44   H7     1.99004       .     S
H8    O41    2.02043   1_554     S
O41   H8     2.02043   1_556     S
H29   O41    2.01109       .     S
O41   H29    2.01109       .     S
H30   O11    2.03900       .     S
O11   H30    2.03900       .     S
H32   O11    2.06398       .     S
O11   H32    2.06398       .     S
H33   O44    2.05134       .     S
O44   H33    2.05134       .     S
H35   O12    2.01797       .     S
O12   H35    2.01797       .     S
H36   O13    2.04769   1_556     S
O13   H36    2.04769   1_554     S
N0    H1     0.87992       .     S
H1    N0     0.87992       .     S
N0    H2     0.88009       .     S
H2    N0     0.88009       .     S
N0    C9     1.31525       .     S
C9    N0     1.31525       .     S
N3    H4     0.88036       .     S
H4    N3     0.88036       .     S
N3    H5     0.88022       .     S
H5    N3     0.88022       .     S
N3    C9     1.33340       .     S
C9    N3     1.33340       .     S
N6    H7     0.87956       .     S
H7    N6     0.87956       .     S
N6    H8     0.87958       .     S
H8    N6     0.87958       .     S
N6    C9     1.31551       .     S
C9    N6     1.31551       .     S
S10   O11    1.45865       .     S
O11   S10    1.45865       .     S
S10   O12    1.46626       .     S
O12   S10    1.46626       .     S
S10   O13    1.46211       .     S
O13   S10    1.46211       .     S
S10   C14    1.77189       .     S
C14   S10    1.77189       .     S
C14   C15    1.37636       .     S
C15   C14    1.37636       .     S
C14   C22    1.38068       .     S
C22   C14    1.38068       .     S
C15   H16    0.95007       .     S
H16   C15    0.95007       .     S
C15   C17    1.38862       .     S
C17   C15    1.38862       .     S
C17   H18    0.95007   1_455     S
H18   C17    0.95007   1_655     S
C17   C19    1.39370       .     S
C19   C17    1.39370       .     S
C19   C20    1.37783       .     S
C20   C19    1.37783       .     S
C19   C24    1.51637       .     S
C24   C19    1.51637       .     S
C20   H21    0.95053       .     S
H21   C20    0.95053       .     S
C20   C22    1.37219       .     S
C22   C20    1.37219       .     S
C22   H23    0.94978       .     S
H23   C22    0.94978       .     S
C24   H25    0.98038       .     S
H25   C24    0.98038       .     S
C24   H26    0.98011       .     S
H26   C24    0.98011       .     S
C24   H27    0.97980       .     S
H27   C24    0.97980       .     S
N28   H29    0.88020       .     S
H29   N28    0.88020       .     S
N28   H30    0.87923   1_556     S
H30   N28    0.87923   1_554     S
N28   C37    1.33910       .     S
C37   N28    1.33910       .     S
N31   H32    0.88022       .     S
H32   N31    0.88022       .     S
N31   H33    0.87994       .     S
H33   N31    0.87994       .     S
N31   C37    1.30887       .     S
C37   N31    1.30887       .     S
N34   H35    0.88029       .     S
H35   N34    0.88029       .     S
N34   H36    0.87980       .     S
H36   N34    0.87980       .     S
N34   C37    1.31807       .     S
C37   N34    1.31807       .     S
S38   O39    1.45602       .     S
O39   S38    1.45602       .     S
S38   C40    1.76226       .     S
C40   S38    1.76226       .     S
S38   O41    1.46245       .     S
O41   S38    1.46245       .     S
S38   O44    1.46375       .     S
O44   S38    1.46375       .     S
C40   C42    1.38229       .     S
C42   C40    1.38229       .     S
C40   C50    1.37457       .     S
C50   C40    1.37457       .     S
C42   H43    0.94922       .     S
H43   C42    0.94922       .     S
C42   C45    1.37733       .     S
C45   C42    1.37733       .     S
C45   H46    0.94916       .     S
H46   C45    0.94916       .     S
C45   C47    1.37699       .     S
C47   C45    1.37699       .     S
C47   C48    1.38594       .     S
C48   C47    1.38594       .     S
C47   C52    1.50639       .     S
C52   C47    1.50639       .     S
C48   H49    0.95020       .     S
H49   C48    0.95020       .     S
C48   C50    1.39042       .     S
C50   C48    1.39042       .     S
C50   H51    0.95028       .     S
H51   C50    0.95028       .     S
C52   H53    0.98041       .     S
H53   C52    0.98041       .     S
C52   H54    0.97980       .     S
H54   C52    0.97980       .     S
C52   H55    0.98044       .     S
H55   C52    0.98044       .     S
C56   C57    1.37536       .     S
C57   C56    1.37536       .     S
C56   C65    1.37734       .     S
C65   C56    1.37734       .     S
C56   C67    1.53220       .     S
C67   C56    1.53220       .     S
C57   H58    0.95075       .     S
H58   C57    0.95075       .     S
C57   C59    1.33296       .     S
C59   C57    1.33296       .     S
C59   H60    0.95054       .     S
H60   C59    0.95054       .     S
C59   C61    1.35863       .     S
C61   C59    1.35863       .     S
C61   H62    0.94996       .     S
H62   C61    0.94996       .     S
C61   C63    1.36057       .     S
C63   C61    1.36057       .     S
C63   H64    0.95109       .     S
H64   C63    0.95109       .     S
C63   C65    1.45097       .     S
C65   C63    1.45097       .     S
C65   H66    0.95023       .     S
H66   C65    0.95023       .     S
C67   C68    1.46716       .     S
C68   C67    1.46716       .     S
C67   C72    1.46631       .     S
C72   C67    1.46631       .     S
C67   C76    1.54070       .     S
C76   C67    1.54070       .     S
C68   H69    0.97959       .     S
H69   C68    0.97959       .     S
C68   H70    0.98004       .     S
H70   C68    0.98004       .     S
C68   H71    0.98022       .     S
H71   C68    0.98022       .     S
C72   H73    0.98166       .     S
H73   C72    0.98166       .     S
C72   H74    0.98074       .     S
H74   C72    0.98074       .     S
C72   H75    0.97760       .     S
H75   C72    0.97760       .     S
C76   H77    0.98002       .     S
H77   C76    0.98002       .     S
C76   H78    0.98071       .     S
H78   C76    0.98071       .     S
C76   H79    0.98035       .     S
H79   C76    0.98035       .     S
O39   H1     2.07508       .     S
H1    O39    2.07508       .     S
O39   H5     2.08914   1_556     S
H5    O39    2.08914   1_554     S
O44   H7     1.99004       .     S
H7    O44    1.99004       .     S
O41   H8     2.02043   1_556     S
H8    O41    2.02043   1_554     S
O41   H29    2.01109       .     S
H29   O41    2.01109       .     S
O11   H30    2.03900       .     S
H30   O11    2.03900       .     S
O11   H32    2.06398       .     S
H32   O11    2.06398       .     S
O44   H33    2.05134       .     S
H33   O44    2.05134       .     S
O12   H35    2.01797       .     S
H35   O12    2.01797       .     S
O13   H36    2.04769   1_554     S
H36   O13    2.04769   1_556     S
H1    N0     0.87992       .     S
N0    H1     0.87992       .     S
H2    N0     0.88009       .     S
N0    H2     0.88009       .     S
C9    N0     1.31525       .     S
N0    C9     1.31525       .     S
H4    N3     0.88036       .     S
N3    H4     0.88036       .     S
H5    N3     0.88022       .     S
N3    H5     0.88022       .     S
C9    N3     1.33340       .     S
N3    C9     1.33340       .     S
H7    N6     0.87956       .     S
N6    H7     0.87956       .     S
H8    N6     0.87958       .     S
N6    H8     0.87958       .     S
C9    N6     1.31551       .     S
N6    C9     1.31551       .     S
O11   S10    1.45865       .     S
S10   O11    1.45865       .     S
O12   S10    1.46626       .     S
S10   O12    1.46626       .     S
O13   S10    1.46211       .     S
S10   O13    1.46211       .     S
C14   S10    1.77189       .     S
S10   C14    1.77189       .     S
C15   C14    1.37636       .     S
C14   C15    1.37636       .     S
C22   C14    1.38068       .     S
C14   C22    1.38068       .     S
H16   C15    0.95007       .     S
C15   H16    0.95007       .     S
C17   C15    1.38862       .     S
C15   C17    1.38862       .     S
H18   C17    0.95007   1_655     S
C17   H18    0.95007   1_455     S
C19   C17    1.39370       .     S
C17   C19    1.39370       .     S
C20   C19    1.37783       .     S
C19   C20    1.37783       .     S
C24   C19    1.51637       .     S
C19   C24    1.51637       .     S
H21   C20    0.95053       .     S
C20   H21    0.95053       .     S
C22   C20    1.37219       .     S
C20   C22    1.37219       .     S
H23   C22    0.94978       .     S
C22   H23    0.94978       .     S
H25   C24    0.98038       .     S
C24   H25    0.98038       .     S
H26   C24    0.98011       .     S
C24   H26    0.98011       .     S
H27   C24    0.97980       .     S
C24   H27    0.97980       .     S
H29   N28    0.88020       .     S
N28   H29    0.88020       .     S
H30   N28    0.87923   1_554     S
N28   H30    0.87923   1_556     S
C37   N28    1.33910       .     S
N28   C37    1.33910       .     S
H32   N31    0.88022       .     S
N31   H32    0.88022       .     S
H33   N31    0.87994       .     S
N31   H33    0.87994       .     S
C37   N31    1.30887       .     S
N31   C37    1.30887       .     S
H35   N34    0.88029       .     S
N34   H35    0.88029       .     S
H36   N34    0.87980       .     S
N34   H36    0.87980       .     S
C37   N34    1.31807       .     S
N34   C37    1.31807       .     S
O39   S38    1.45602       .     S
S38   O39    1.45602       .     S
C40   S38    1.76226       .     S
S38   C40    1.76226       .     S
O41   S38    1.46245       .     S
S38   O41    1.46245       .     S
O44   S38    1.46375       .     S
S38   O44    1.46375       .     S
C42   C40    1.38229       .     S
C40   C42    1.38229       .     S
C50   C40    1.37457       .     S
C40   C50    1.37457       .     S
H43   C42    0.94922       .     S
C42   H43    0.94922       .     S
C45   C42    1.37733       .     S
C42   C45    1.37733       .     S
H46   C45    0.94916       .     S
C45   H46    0.94916       .     S
C47   C45    1.37699       .     S
C45   C47    1.37699       .     S
C48   C47    1.38594       .     S
C47   C48    1.38594       .     S
C52   C47    1.50639       .     S
C47   C52    1.50639       .     S
H49   C48    0.95020       .     S
C48   H49    0.95020       .     S
C50   C48    1.39042       .     S
C48   C50    1.39042       .     S
H51   C50    0.95028       .     S
C50   H51    0.95028       .     S
H53   C52    0.98041       .     S
C52   H53    0.98041       .     S
H54   C52    0.97980       .     S
C52   H54    0.97980       .     S
H55   C52    0.98044       .     S
C52   H55    0.98044       .     S
C57   C56    1.37536       .     S
C56   C57    1.37536       .     S
C65   C56    1.37734       .     S
C56   C65    1.37734       .     S
C67   C56    1.53220       .     S
C56   C67    1.53220       .     S
H58   C57    0.95075       .     S
C57   H58    0.95075       .     S
C59   C57    1.33296       .     S
C57   C59    1.33296       .     S
H60   C59    0.95054       .     S
C59   H60    0.95054       .     S
C61   C59    1.35863       .     S
C59   C61    1.35863       .     S
H62   C61    0.94996       .     S
C61   H62    0.94996       .     S
C63   C61    1.36057       .     S
C61   C63    1.36057       .     S
H64   C63    0.95109       .     S
C63   H64    0.95109       .     S
C65   C63    1.45097       .     S
C63   C65    1.45097       .     S
H66   C65    0.95023       .     S
C65   H66    0.95023       .     S
C68   C67    1.46716       .     S
C67   C68    1.46716       .     S
C72   C67    1.46631       .     S
C67   C72    1.46631       .     S
C76   C67    1.54070       .     S
C67   C76    1.54070       .     S
H69   C68    0.97959       .     S
C68   H69    0.97959       .     S
H70   C68    0.98004       .     S
C68   H70    0.98004       .     S
H71   C68    0.98022       .     S
C68   H71    0.98022       .     S
H73   C72    0.98166       .     S
C72   H73    0.98166       .     S
H74   C72    0.98074       .     S
C72   H74    0.98074       .     S
H75   C72    0.97760       .     S
C72   H75    0.97760       .     S
H77   C76    0.98002       .     S
C76   H77    0.98002       .     S
H78   C76    0.98071       .     S
C76   H78    0.98071       .     S
H79   C76    0.98035       .     S
C76   H79    0.98035       .     S
