data_I
_chemical_name_common  '/data/user2/wty/HOF/MOFDiff/mofdiff/data/test/2_g4ibs22'
_cell_length_a  7.51060
_cell_length_b 11.84860
_cell_length_c 22.98720
_cell_angle_alpha 90.00000
_cell_angle_beta  90.00000
_cell_angle_gamma 90.00000
_space_group_name_H-M_alt      'P 1'


loop_
_space_group_symop_operation_xyz
  'x, y, z' 

loop_
_atom_site_label
_atom_site_fract_x
_atom_site_fract_y
_atom_site_fract_z
_atom_site_type_symbol
I0     0.13845  0.61926    0.091     I
S1     0.24473  0.64173  0.80544     S
O2      0.4073   0.5812  0.79224     O
C3      0.2213   0.6372    0.882     C
O4      0.0882   0.5849  0.78082     O
C5      0.2704    0.541   0.9119     C
H6      0.3206    0.479   0.8914     H
O7       0.251   0.7601   0.7886     O
C8      0.2469   0.5345   0.9714     C
H9      0.2817   0.4687    0.992     H
C10     0.1719    0.625   0.0006     C
C11     0.1202   0.7218   0.9702     C
H12      0.069   0.7835   0.9906     H
C13      0.143   0.7283   0.9109     C
H14     0.1063   0.7935     0.89     H
N15      0.097   0.3496    0.751     N
H16     0.9963   0.3122   0.7474     H
H17     0.0961   0.4203   0.7627     H
N18     0.4014   0.3573  0.74152     N
H19     0.5028   0.3253   0.7318     H
H20     0.3999    0.428   0.7533     H
N21     0.2536    0.193  0.72084     N
H22     0.3551   0.1612   0.7111     H
H23     0.1538   0.1543   0.7188     H
C24     0.2508   0.2992   0.7385     C
H25     0.5257   0.3002   0.0776     H
O26      0.537   0.3316   0.0961     O
C27     0.5709   0.3298   0.0422     C
O28     0.6794   0.4896   0.0928     O
C29     0.6119   0.3084   0.9392     C
C30     0.7032    0.411   0.9364     C
C31     0.7241   0.4717   0.9895     C
H32     0.7837   0.5424   0.9893     H
C33     0.6589   0.4293   0.0414     C
C34     0.5486   0.2735   0.9923     C
H35     0.4843   0.2045   0.9937     H
C36     0.5802   0.2389   0.8856     C
H37     0.5093   0.1723   0.8957     H
H38     0.6947    0.215   0.8693     H
H39     0.5158   0.2842   0.8567     H
C40      0.776   0.4568   0.8805     C
H41     0.8697   0.4066    0.866     H
H42     0.8258   0.5321   0.8872     H
H43     0.6802   0.4617   0.8516     H
C44     0.6157   0.4426   0.1459     C
H45     0.4852    0.442   0.1457     H
H46     0.6599   0.3652     0.15     H
C47      0.552    0.403   0.1454     C
H48     0.6758   0.4045   0.1585     H
H49     0.5134   0.4793   0.1351     H
H50     0.6582   0.4882   0.1787     H
H51     0.4761   0.3737   0.1768     H
loop_
_geom_bond_atom_site_label_1
_geom_bond_atom_site_label_2
_geom_bond_distance
_geom_bond_site_symmetry_2
_ccdc_geom_bond_type
H17   O4     1.99515       .     S
O4    H17    1.99515       .     S
H20   O2     2.02467       .     S
O2    H20    2.02467       .     S
I0    C10    2.09428       .     S
C10   I0     2.09428       .     S
S1    O2     1.44820       .     S
O2    S1     1.44820       .     S
S1    C3     1.76949       .     S
C3    S1     1.76949       .     S
S1    O4     1.46827       .     S
O4    S1     1.46827       .     S
S1    O7     1.45572       .     S
O7    S1     1.45572       .     S
C3    C5     1.38117       .     S
C5    C3     1.38117       .     S
C3    C13    1.39724       .     S
C13   C3     1.39724       .     S
C5    H6     0.95072       .     S
H6    C5     0.95072       .     S
C5    C8     1.38123       .     S
C8    C5     1.38123       .     S
C8    H9     0.94889       .     S
H9    C8     0.94889       .     S
C8    C10    1.38480   1_556     S
C10   C8     1.38480   1_554     S
C10   C11    1.39807   1_554     S
C11   C10    1.39807   1_556     S
C11   H12    0.94985       .     S
H12   C11    0.94985       .     S
C11   C13    1.37601       .     S
C13   C11    1.37601       .     S
C13   H14    0.95058       .     S
H14   C13    0.95058       .     S
N15   H16    0.88047   1_455     S
H16   N15    0.88047   1_655     S
N15   H17    0.87984       .     S
H17   N15    0.87984       .     S
N15   C24    1.33173       .     S
C24   N15    1.33173       .     S
N18   H19    0.87959       .     S
H19   N18    0.87959       .     S
N18   H20    0.88045       .     S
H20   N18    0.88045       .     S
N18   C24    1.32593       .     S
C24   N18    1.32593       .     S
N21   H22    0.87934       .     S
H22   N21    0.87934       .     S
N21   H23    0.87994       .     S
H23   N21    0.87994       .     S
N21   C24    1.32235       .     S
C24   N21    1.32235       .     S
H25   O26    0.57138       .     S
O26   H25    0.57138       .     S
H25   C27    0.94891       .     S
C27   H25    0.94891       .     S
O26   C27    1.26508       .     S
C27   O26    1.26508       .     S
O26   C47    1.41869       .     S
C47   O26    1.41869       .     S
C27   C33    1.35169       .     S
C33   C27    1.35169       .     S
C27   C34    1.33746   1_554     S
C34   C27    1.33746   1_556     S
O28   C33    1.38932       .     S
C33   O28    1.38932       .     S
O28   C44    1.42440       .     S
C44   O28    1.42440       .     S
C29   C30    1.39721       .     S
C30   C29    1.39721       .     S
C29   C34    1.37366       .     S
C34   C29    1.37366       .     S
C29   C36    1.50097       .     S
C36   C29    1.50097       .     S
C30   C31    1.42542       .     S
C31   C30    1.42542       .     S
C30   C40    1.49821       .     S
C40   C30    1.49821       .     S
C31   H32    0.94981       .     S
H32   C31    0.94981       .     S
C31   C33    1.38402   1_556     S
C33   C31    1.38402   1_554     S
C34   H35    0.95008       .     S
H35   C34    0.95008       .     S
C36   H37    0.97988       .     S
H37   C36    0.97988       .     S
C36   H38    0.97986       .     S
H38   C36    0.97986       .     S
C36   H39    0.98152       .     S
H39   C36    0.98152       .     S
C40   H41    0.97987       .     S
H41   C40    0.97987       .     S
C40   H42    0.97961       .     S
H42   C40    0.97961       .     S
C40   H43    0.98102       .     S
H43   C40    0.98102       .     S
C44   H45    0.98017       .     S
H45   C44    0.98017       .     S
C44   H46    0.97986       .     S
H46   C44    0.97986       .     S
C44   C47    0.67021       .     S
C47   C44    0.67021       .     S
C44   H48    0.70102       .     S
H48   C44    0.70102       .     S
C44   H49    0.91709       .     S
H49   C44    0.91709       .     S
C44   H50    0.98097       .     S
H50   C44    0.98097       .     S
H45   C47    0.68212       .     S
C47   H45    0.68212       .     S
H45   H49    0.54731       .     S
H49   H45    0.54731       .     S
H46   C47    0.93194       .     S
C47   H46    0.93194       .     S
H46   H48    0.51891       .     S
H48   H46    0.51891       .     S
C47   H48    0.97752       .     S
H48   C47    0.97752       .     S
C47   H49    0.97847       .     S
H49   C47    0.97847       .     S
C47   H51    0.98310       .     S
H51   C47    0.98310       .     S
O4    H17    1.99515       .     S
H17   O4     1.99515       .     S
O2    H20    2.02467       .     S
H20   O2     2.02467       .     S
C10   I0     2.09428       .     S
I0    C10    2.09428       .     S
O2    S1     1.44820       .     S
S1    O2     1.44820       .     S
C3    S1     1.76949       .     S
S1    C3     1.76949       .     S
O4    S1     1.46827       .     S
S1    O4     1.46827       .     S
O7    S1     1.45572       .     S
S1    O7     1.45572       .     S
C5    C3     1.38117       .     S
C3    C5     1.38117       .     S
C13   C3     1.39724       .     S
C3    C13    1.39724       .     S
H6    C5     0.95072       .     S
C5    H6     0.95072       .     S
C8    C5     1.38123       .     S
C5    C8     1.38123       .     S
H9    C8     0.94889       .     S
C8    H9     0.94889       .     S
C10   C8     1.38480   1_554     S
C8    C10    1.38480   1_556     S
C11   C10    1.39807   1_556     S
C10   C11    1.39807   1_554     S
H12   C11    0.94985       .     S
C11   H12    0.94985       .     S
C13   C11    1.37601       .     S
C11   C13    1.37601       .     S
H14   C13    0.95058       .     S
C13   H14    0.95058       .     S
H16   N15    0.88047   1_655     S
N15   H16    0.88047   1_455     S
H17   N15    0.87984       .     S
N15   H17    0.87984       .     S
C24   N15    1.33173       .     S
N15   C24    1.33173       .     S
H19   N18    0.87959       .     S
N18   H19    0.87959       .     S
H20   N18    0.88045       .     S
N18   H20    0.88045       .     S
C24   N18    1.32593       .     S
N18   C24    1.32593       .     S
H22   N21    0.87934       .     S
N21   H22    0.87934       .     S
H23   N21    0.87994       .     S
N21   H23    0.87994       .     S
C24   N21    1.32235       .     S
N21   C24    1.32235       .     S
O26   H25    0.57138       .     S
H25   O26    0.57138       .     S
C27   H25    0.94891       .     S
H25   C27    0.94891       .     S
C27   O26    1.26508       .     S
O26   C27    1.26508       .     S
C47   O26    1.41869       .     S
O26   C47    1.41869       .     S
C33   C27    1.35169       .     S
C27   C33    1.35169       .     S
C34   C27    1.33746   1_556     S
C27   C34    1.33746   1_554     S
C33   O28    1.38932       .     S
O28   C33    1.38932       .     S
C44   O28    1.42440       .     S
O28   C44    1.42440       .     S
C30   C29    1.39721       .     S
C29   C30    1.39721       .     S
C34   C29    1.37366       .     S
C29   C34    1.37366       .     S
C36   C29    1.50097       .     S
C29   C36    1.50097       .     S
C31   C30    1.42542       .     S
C30   C31    1.42542       .     S
C40   C30    1.49821       .     S
C30   C40    1.49821       .     S
H32   C31    0.94981       .     S
C31   H32    0.94981       .     S
C33   C31    1.38402   1_554     S
C31   C33    1.38402   1_556     S
H35   C34    0.95008       .     S
C34   H35    0.95008       .     S
H37   C36    0.97988       .     S
C36   H37    0.97988       .     S
H38   C36    0.97986       .     S
C36   H38    0.97986       .     S
H39   C36    0.98152       .     S
C36   H39    0.98152       .     S
H41   C40    0.97987       .     S
C40   H41    0.97987       .     S
H42   C40    0.97961       .     S
C40   H42    0.97961       .     S
H43   C40    0.98102       .     S
C40   H43    0.98102       .     S
H45   C44    0.98017       .     S
C44   H45    0.98017       .     S
H46   C44    0.97986       .     S
C44   H46    0.97986       .     S
C47   C44    0.67021       .     S
C44   C47    0.67021       .     S
H48   C44    0.70102       .     S
C44   H48    0.70102       .     S
H49   C44    0.91709       .     S
C44   H49    0.91709       .     S
H50   C44    0.98097       .     S
C44   H50    0.98097       .     S
C47   H45    0.68212       .     S
H45   C47    0.68212       .     S
H49   H45    0.54731       .     S
H45   H49    0.54731       .     S
C47   H46    0.93194       .     S
H46   C47    0.93194       .     S
H48   H46    0.51891       .     S
H46   H48    0.51891       .     S
H48   C47    0.97752       .     S
C47   H48    0.97752       .     S
H49   C47    0.97847       .     S
C47   H49    0.97847       .     S
H51   C47    0.98310       .     S
C47   H51    0.98310       .     S
