data_I
_chemical_name_common  '/data/user2/wty/HOF/MOFDiff/mofdiff/data/test/2_g4ipbs0675'
_cell_length_a 18.96500
_cell_length_b 21.73300
_cell_length_c 13.83200
_cell_angle_alpha 90.00000
_cell_angle_beta  101.78100
_cell_angle_gamma 90.00000
_space_group_name_H-M_alt      'P 1'


loop_
_space_group_symop_operation_xyz
  'x, y, z' 

loop_
_atom_site_label
_atom_site_fract_x
_atom_site_fract_y
_atom_site_fract_z
_atom_site_type_symbol
C0     0.93251  0.46557   0.6526     C
C1     0.93957  0.46967   0.7533     C
H2      0.9391   0.4327   0.7899     H
C3     0.94715  0.52381   0.8028     C
H4      0.9512   0.5246   0.8724     H
C5       0.949  0.57978   0.7491     C
C6      0.9427  0.57489   0.6494     C
H7      0.9442   0.6115   0.6124     H
C8     0.93436  0.51996   0.5998     C
H9      0.9299   0.5189   0.5301     H
C10     0.9236  0.40389   0.6005     C
H11     0.9685   0.3928   0.5803     H
H12     0.8845   0.4065   0.5421     H
H13     0.9119   0.3724   0.6455     H
C14     0.9564   0.6396   0.8046     C
H15     0.9984    0.662   0.7918     H
H16     0.9628   0.6313   0.8755     H
H17      0.913   0.6644   0.7827     H
N18    0.11779  0.25145  0.43265     N
H19     0.1407   0.2696   0.4869     H
H20     0.1412   0.2411   0.3864     H
N21    0.01345  0.21323  0.33849     N
H22     0.9669    0.206   0.3301     H
H23     0.0369   0.2029   0.2922     H
N24    0.01302  0.25528   0.4899     N
H25     0.0359   0.2734   0.5442     H
H26     0.9666   0.2475   0.4819     H
C27    0.04814  0.23978  0.42069     C
S28    0.83563   0.6832  0.30477     S
O29    0.91288  0.69479  0.32422     O
O30    0.79916  0.71443  0.37371     O
O31     0.8023  0.69724  0.20201     O
C32    0.82469  0.60365  0.32071     C
C33     0.7658  0.58174   0.3544     C
H34     0.7325   0.6096   0.3733     H
C35    0.75565  0.51923   0.3605     C
H36     0.7151   0.5044   0.3839     H
C37    0.80311  0.47737  0.33328     C
C38     0.8627  0.50021  0.30278     C
H39      0.897   0.4723   0.2863     H
C40    0.87387  0.56276  0.29565     C
H41      0.915   0.5775   0.2737     H
C42     0.7863  0.40868    0.336     C
H43     0.7789   0.3989   0.4038     H
C44     0.8455  0.36722   0.3158     C
H45     0.8523   0.3741   0.2482     H
H46     0.8322   0.3242   0.3233     H
H47     0.8904   0.3765   0.3626     H
C48     0.7148  0.39493   0.2629     C
H49     0.6776   0.4237   0.2745     H
H50     0.6996   0.3527   0.2727     H
H51     0.7218   0.3997    0.195     H
N52    0.77707  0.23501  0.11476     N
H53     0.7991   0.2155   0.1682     H
H54     0.8004   0.2435   0.0675     H
N55    0.67349  0.23899  0.17622     N
H56     0.6279   0.2495   0.1694     H
H57     0.6956     0.22   0.2301     H
N58    0.67494  0.28026  0.02437     N
H59     0.6294   0.2907   0.0179     H
H60     0.6981   0.2888    0.977     H
C61    0.70867  0.25168  0.10544     C
S62    0.17465   0.6853  0.10853     S
O63    0.24844  0.70859  0.13301     O
O64    0.13269  0.71577  0.02169     O
O65    0.14028  0.68733  0.19364     O
C66    0.18207  0.60762  0.07637     C
C67    0.14166  0.58331    0.991     C
H68     0.1062   0.6078   0.9499     H
C69     0.1528  0.52307    0.965     C
H70     0.1238   0.5064   0.9067     H
C71    0.20469  0.48678  0.02149     C
C72    0.24084  0.51062   0.1097     C
H73     0.2743   0.4854   0.1527     H
C74    0.22975  0.57027  0.13759     C
H75     0.2552   0.5855   0.1993     H
C76    0.22433  0.42493   0.9835     C
H77     0.1835   0.4115   0.9299     H
C78     0.2909  0.43325   0.9378     C
H79     0.2815   0.4654   0.8871     H
H80     0.3017   0.3944   0.9078     H
H81     0.3321   0.4453   0.9894     H
C82     0.2375  0.37497   0.0609     C
H83     0.2811   0.3846   0.1101     H
H84     0.2439   0.3355   0.0295     H
H85     0.1962   0.3724   0.0932     H
C86    0.37058  0.56103   0.4833     C
C87     0.3028  0.56271   0.4236     C
H88     0.2798   0.6013   0.4085     H
C89    0.26747  0.50968    0.385     C
H90     0.2205   0.5127    0.345     H
C91    0.29921  0.45226   0.4035     C
C92    0.36712  0.45102   0.4628     C
H93     0.3908   0.4126   0.4771     H
C94    0.40151  0.50366   0.5018     C
H95     0.4481   0.5005   0.5429     H
C96     0.4087  0.61832   0.5261     C
H97     0.4182   0.6446   0.4726     H
H98     0.4544   0.6072   0.5697     H
H99     0.3785   0.6406    0.564     H
C100      0.26  0.39425    0.364     C
H101    0.2323   0.3789   0.4115     H
H102     0.295    0.363   0.3537     H
H103    0.2273   0.4032    0.301     H
N104   0.45049  0.25648  0.35262     N
H105    0.4728   0.2488   0.4137     H
H106    0.4746   0.2716     0.31     H
N107   0.34465  0.22264  0.38864     N
H108     0.298   0.2161   0.3707     H
H109    0.3673   0.2141   0.4492     H
N110   0.34665  0.25817  0.23384     N
H111       0.3   0.2516   0.2159     H
H112    0.3707   0.2733   0.1912     H
C113   0.38059  0.24529  0.32479     C
loop_
_geom_bond_atom_site_label_1
_geom_bond_atom_site_label_2
_geom_bond_distance
_geom_bond_site_symmetry_2
_ccdc_geom_bond_type
C0    C1     1.37471       .     S
C1    C0     1.37471       .     S
C0    C8     1.39368       .     S
C8    C0     1.39368       .     S
C0    C10    1.51495       .     S
C10   C0     1.51495       .     S
C1    H2     0.95067       .     S
H2    C1     0.95067       .     S
C1    C3     1.35415       .     S
C3    C1     1.35415       .     S
C3    H4     0.95016       .     S
H4    C3     0.95016       .     S
C3    C5     1.42941       .     S
C5    C3     1.42941       .     S
C5    C6     1.36384       .     S
C6    C5     1.36384       .     S
C5    C14    1.50173       .     S
C14   C5     1.50173       .     S
C6    H7     0.94959       .     S
H7    C6     0.94959       .     S
C6    C8     1.36987       .     S
C8    C6     1.36987       .     S
C8    H9     0.95071       .     S
H9    C8     0.95071       .     S
C10   H11    0.97899       .     S
H11   C10    0.97899       .     S
C10   H12    0.98031       .     S
H12   C10    0.98031       .     S
C10   H13    0.98053       .     S
H13   C10    0.98053       .     S
C14   H15    0.97999       .     S
H15   C14    0.97999       .     S
C14   H16    0.98001       .     S
H16   C14    0.98001       .     S
C14   H17    0.97873       .     S
H17   C14    0.97873       .     S
N18   H19    0.87995       .     S
H19   N18    0.87995       .     S
N18   H20    0.87917       .     S
H20   N18    0.87917       .     S
N18   C27    1.32184       .     S
C27   N18    1.32184       .     S
N21   H22    0.88074   1_455     S
H22   N21    0.88074   1_655     S
N21   H23    0.88001       .     S
H23   N21    0.88001       .     S
N21   C27    1.32403       .     S
C27   N21    1.32403       .     S
N24   H25    0.88000       .     S
H25   N24    0.88000       .     S
N24   H26    0.88095   1_455     S
H26   N24    0.88095   1_655     S
N24   C27    1.31678       .     S
C27   N24    1.31678       .     S
S28   O29    1.45645       .     S
O29   S28    1.45645       .     S
S28   O30    1.45523       .     S
O30   S28    1.45523       .     S
S28   O31    1.46495       .     S
O31   S28    1.46495       .     S
S28   C32    1.76048       .     S
C32   S28    1.76048       .     S
C32   C33    1.37977       .     S
C33   C32    1.37977       .     S
C32   C40    1.38269       .     S
C40   C32    1.38269       .     S
C33   H34    0.94932       .     S
H34   C33    0.94932       .     S
C33   C35    1.37710       .     S
C35   C33    1.37710       .     S
C35   H36    0.94957       .     S
H36   C35    0.94957       .     S
C35   C37    1.38489       .     S
C37   C35    1.38489       .     S
C37   C38    1.37704       .     S
C38   C37    1.37704       .     S
C37   C42    1.52857       .     S
C42   C37    1.52857       .     S
C38   H39    0.95057       .     S
H39   C38    0.95057       .     S
C38   C40    1.38243       .     S
C40   C38    1.38243       .     S
C40   H41    0.94866       .     S
H41   C40    0.94866       .     S
C42   H43    0.99905       .     S
H43   C42    0.99905       .     S
C42   C44    1.50949       .     S
C44   C42    1.50949       .     S
C42   C48    1.54613       .     S
C48   C42    1.54613       .     S
C44   H45    0.98109       .     S
H45   C44    0.98109       .     S
C44   H46    0.97939       .     S
H46   C44    0.97939       .     S
C44   H47    0.97966       .     S
H47   C44    0.97966       .     S
C48   H49    0.98012       .     S
H49   C48    0.98012       .     S
C48   H50    0.97967       .     S
H50   C48    0.97967       .     S
C48   H51    0.98049       .     S
H51   C48    0.98049       .     S
N52   H53    0.88013       .     S
H53   N52    0.88013       .     S
N52   H54    0.88048       .     S
H54   N52    0.88048       .     S
N52   C61    1.32753       .     S
C61   N52    1.32753       .     S
N55   H56    0.88052       .     S
H56   N55    0.88052       .     S
N55   H57    0.87976       .     S
H57   N55    0.87976       .     S
N55   C61    1.32153       .     S
C61   N55    1.32153       .     S
N58   H59    0.87969       .     S
H59   N58    0.87969       .     S
N58   H60    0.87989   1_554     S
H60   N58    0.87989   1_556     S
N58   C61    1.32648       .     S
C61   N58    1.32648       .     S
S62   O63    1.46142       .     S
O63   S62    1.46142       .     S
S62   O64    1.45748       .     S
O64   S62    1.45748       .     S
S62   O65    1.45810       .     S
O65   S62    1.45810       .     S
S62   C66    1.75879       .     S
C66   S62    1.75879       .     S
C66   C67    1.37525   1_554     S
C67   C66    1.37525   1_556     S
C66   C74    1.37148       .     S
C74   C66    1.37148       .     S
C67   H68    0.95006       .     S
H68   C67    0.95006       .     S
C67   C69    1.38528       .     S
C69   C67    1.38528       .     S
C69   H70    0.95022       .     S
H70   C69    0.95022       .     S
C69   C71    1.37369   1_556     S
C71   C69    1.37369   1_554     S
C71   C72    1.37317       .     S
C72   C71    1.37317       .     S
C71   C76    1.51711   1_554     S
C76   C71    1.51711   1_556     S
C72   H73    0.95012       .     S
H73   C72    0.95012       .     S
C72   C74    1.38086       .     S
C74   C72    1.38086       .     S
C74   H75    0.95020       .     S
H75   C74    0.95020       .     S
C76   H77    1.00002       .     S
H77   C76    1.00002       .     S
C76   C78    1.53364       .     S
C78   C76    1.53364       .     S
C76   C82    1.50940   1_556     S
C82   C76    1.50940   1_554     S
C78   H79    0.98017       .     S
H79   C78    0.98017       .     S
C78   H80    0.98068       .     S
H80   C78    0.98068       .     S
C78   H81    0.98020       .     S
H81   C78    0.98020       .     S
C82   H83    0.98024       .     S
H83   C82    0.98024       .     S
C82   H84    0.98016       .     S
H84   C82    0.98016       .     S
C82   H85    0.97934       .     S
H85   C82    0.97934       .     S
C86   C87    1.37919       .     S
C87   C86    1.37919       .     S
C86   C94    1.37943       .     S
C94   C86    1.37943       .     S
C86   C96    1.49953       .     S
C96   C86    1.49953       .     S
C87   H88    0.94872       .     S
H88   C87    0.94872       .     S
C87   C89    1.38426       .     S
C89   C87    1.38426       .     S
C89   H90    0.95009       .     S
H90   C89    0.95009       .     S
C89   C91    1.38643       .     S
C91   C89    1.38643       .     S
C91   C92    1.37872       .     S
C92   C91    1.37872       .     S
C91   C100   1.50832       .     S
C100  C91    1.50832       .     S
C92   H93    0.94959       .     S
H93   C92    0.94959       .     S
C92   C94    1.37168       .     S
C94   C92    1.37168       .     S
C94   H95    0.95053       .     S
H95   C94    0.95053       .     S
C96   H97    0.98017       .     S
H97   C96    0.98017       .     S
C96   H98    0.97971       .     S
H98   C96    0.97971       .     S
C96   H99    0.97976       .     S
H99   C96    0.97976       .     S
C100  H101   0.97973       .     S
H101  C100   0.97973       .     S
C100  H102   0.98019       .     S
H102  C100   0.98019       .     S
C100  H103   0.98037       .     S
H103  C100   0.98037       .     S
N104  H105   0.88017       .     S
H105  N104   0.88017       .     S
N104  H106   0.88015       .     S
H106  N104   0.88015       .     S
N104  C113   1.32526       .     S
C113  N104   1.32526       .     S
N107  H108   0.88026       .     S
H108  N107   0.88026       .     S
N107  H109   0.87961       .     S
H109  N107   0.87961       .     S
N107  C113   1.31632       .     S
C113  N107   1.31632       .     S
N110  H111   0.88036       .     S
H111  N110   0.88036       .     S
N110  H112   0.87970       .     S
H112  N110   0.87970       .     S
N110  C113   1.32084       .     S
C113  N110   1.32084       .     S
C1    C0     1.37471       .     S
C0    C1     1.37471       .     S
C8    C0     1.39368       .     S
C0    C8     1.39368       .     S
C10   C0     1.51495       .     S
C0    C10    1.51495       .     S
H2    C1     0.95067       .     S
C1    H2     0.95067       .     S
C3    C1     1.35415       .     S
C1    C3     1.35415       .     S
H4    C3     0.95016       .     S
C3    H4     0.95016       .     S
C5    C3     1.42941       .     S
C3    C5     1.42941       .     S
C6    C5     1.36384       .     S
C5    C6     1.36384       .     S
C14   C5     1.50173       .     S
C5    C14    1.50173       .     S
H7    C6     0.94959       .     S
C6    H7     0.94959       .     S
C8    C6     1.36987       .     S
C6    C8     1.36987       .     S
H9    C8     0.95071       .     S
C8    H9     0.95071       .     S
H11   C10    0.97899       .     S
C10   H11    0.97899       .     S
H12   C10    0.98031       .     S
C10   H12    0.98031       .     S
H13   C10    0.98053       .     S
C10   H13    0.98053       .     S
H15   C14    0.97999       .     S
C14   H15    0.97999       .     S
H16   C14    0.98001       .     S
C14   H16    0.98001       .     S
H17   C14    0.97873       .     S
C14   H17    0.97873       .     S
H19   N18    0.87995       .     S
N18   H19    0.87995       .     S
H20   N18    0.87917       .     S
N18   H20    0.87917       .     S
C27   N18    1.32184       .     S
N18   C27    1.32184       .     S
H22   N21    0.88074   1_655     S
N21   H22    0.88074   1_455     S
H23   N21    0.88001       .     S
N21   H23    0.88001       .     S
C27   N21    1.32403       .     S
N21   C27    1.32403       .     S
H25   N24    0.88000       .     S
N24   H25    0.88000       .     S
H26   N24    0.88095   1_655     S
N24   H26    0.88095   1_455     S
C27   N24    1.31678       .     S
N24   C27    1.31678       .     S
O29   S28    1.45645       .     S
S28   O29    1.45645       .     S
O30   S28    1.45523       .     S
S28   O30    1.45523       .     S
O31   S28    1.46495       .     S
S28   O31    1.46495       .     S
C32   S28    1.76048       .     S
S28   C32    1.76048       .     S
C33   C32    1.37977       .     S
C32   C33    1.37977       .     S
C40   C32    1.38269       .     S
C32   C40    1.38269       .     S
H34   C33    0.94932       .     S
C33   H34    0.94932       .     S
C35   C33    1.37710       .     S
C33   C35    1.37710       .     S
H36   C35    0.94957       .     S
C35   H36    0.94957       .     S
C37   C35    1.38489       .     S
C35   C37    1.38489       .     S
C38   C37    1.37704       .     S
C37   C38    1.37704       .     S
C42   C37    1.52857       .     S
C37   C42    1.52857       .     S
H39   C38    0.95057       .     S
C38   H39    0.95057       .     S
C40   C38    1.38243       .     S
C38   C40    1.38243       .     S
H41   C40    0.94866       .     S
C40   H41    0.94866       .     S
H43   C42    0.99905       .     S
C42   H43    0.99905       .     S
C44   C42    1.50949       .     S
C42   C44    1.50949       .     S
C48   C42    1.54613       .     S
C42   C48    1.54613       .     S
H45   C44    0.98109       .     S
C44   H45    0.98109       .     S
H46   C44    0.97939       .     S
C44   H46    0.97939       .     S
H47   C44    0.97966       .     S
C44   H47    0.97966       .     S
H49   C48    0.98012       .     S
C48   H49    0.98012       .     S
H50   C48    0.97967       .     S
C48   H50    0.97967       .     S
H51   C48    0.98049       .     S
C48   H51    0.98049       .     S
H53   N52    0.88013       .     S
N52   H53    0.88013       .     S
H54   N52    0.88048       .     S
N52   H54    0.88048       .     S
C61   N52    1.32753       .     S
N52   C61    1.32753       .     S
H56   N55    0.88052       .     S
N55   H56    0.88052       .     S
H57   N55    0.87976       .     S
N55   H57    0.87976       .     S
C61   N55    1.32153       .     S
N55   C61    1.32153       .     S
H59   N58    0.87969       .     S
N58   H59    0.87969       .     S
H60   N58    0.87989   1_556     S
N58   H60    0.87989   1_554     S
C61   N58    1.32648       .     S
N58   C61    1.32648       .     S
O63   S62    1.46142       .     S
S62   O63    1.46142       .     S
O64   S62    1.45748       .     S
S62   O64    1.45748       .     S
O65   S62    1.45810       .     S
S62   O65    1.45810       .     S
C66   S62    1.75879       .     S
S62   C66    1.75879       .     S
C67   C66    1.37525   1_556     S
C66   C67    1.37525   1_554     S
C74   C66    1.37148       .     S
C66   C74    1.37148       .     S
H68   C67    0.95006       .     S
C67   H68    0.95006       .     S
C69   C67    1.38528       .     S
C67   C69    1.38528       .     S
H70   C69    0.95022       .     S
C69   H70    0.95022       .     S
C71   C69    1.37369   1_554     S
C69   C71    1.37369   1_556     S
C72   C71    1.37317       .     S
C71   C72    1.37317       .     S
C76   C71    1.51711   1_556     S
C71   C76    1.51711   1_554     S
H73   C72    0.95012       .     S
C72   H73    0.95012       .     S
C74   C72    1.38086       .     S
C72   C74    1.38086       .     S
H75   C74    0.95020       .     S
C74   H75    0.95020       .     S
H77   C76    1.00002       .     S
C76   H77    1.00002       .     S
C78   C76    1.53364       .     S
C76   C78    1.53364       .     S
C82   C76    1.50940   1_554     S
C76   C82    1.50940   1_556     S
H79   C78    0.98017       .     S
C78   H79    0.98017       .     S
H80   C78    0.98068       .     S
C78   H80    0.98068       .     S
H81   C78    0.98020       .     S
C78   H81    0.98020       .     S
H83   C82    0.98024       .     S
C82   H83    0.98024       .     S
H84   C82    0.98016       .     S
C82   H84    0.98016       .     S
H85   C82    0.97934       .     S
C82   H85    0.97934       .     S
C87   C86    1.37919       .     S
C86   C87    1.37919       .     S
C94   C86    1.37943       .     S
C86   C94    1.37943       .     S
C96   C86    1.49953       .     S
C86   C96    1.49953       .     S
H88   C87    0.94872       .     S
C87   H88    0.94872       .     S
C89   C87    1.38426       .     S
C87   C89    1.38426       .     S
H90   C89    0.95009       .     S
C89   H90    0.95009       .     S
C91   C89    1.38643       .     S
C89   C91    1.38643       .     S
C92   C91    1.37872       .     S
C91   C92    1.37872       .     S
C100  C91    1.50832       .     S
C91   C100   1.50832       .     S
H93   C92    0.94959       .     S
C92   H93    0.94959       .     S
C94   C92    1.37168       .     S
C92   C94    1.37168       .     S
H95   C94    0.95053       .     S
C94   H95    0.95053       .     S
H97   C96    0.98017       .     S
C96   H97    0.98017       .     S
H98   C96    0.97971       .     S
C96   H98    0.97971       .     S
H99   C96    0.97976       .     S
C96   H99    0.97976       .     S
H101  C100   0.97973       .     S
C100  H101   0.97973       .     S
H102  C100   0.98019       .     S
C100  H102   0.98019       .     S
H103  C100   0.98037       .     S
C100  H103   0.98037       .     S
H105  N104   0.88017       .     S
N104  H105   0.88017       .     S
H106  N104   0.88015       .     S
N104  H106   0.88015       .     S
C113  N104   1.32526       .     S
N104  C113   1.32526       .     S
H108  N107   0.88026       .     S
N107  H108   0.88026       .     S
H109  N107   0.87961       .     S
N107  H109   0.87961       .     S
C113  N107   1.31632       .     S
N107  C113   1.31632       .     S
H111  N110   0.88036       .     S
N110  H111   0.88036       .     S
H112  N110   0.87970       .     S
N110  H112   0.87970       .     S
C113  N110   1.32084       .     S
N110  C113   1.32084       .     S
