data_I
_chemical_name_common  '/data/user2/wty/HOF/MOFDiff/mofdiff/data/test/2_g4ebs3'
_cell_length_a  7.50800
_cell_length_b 20.47300
_cell_length_c 12.37700
_cell_angle_alpha 90.00000
_cell_angle_beta  92.76500
_cell_angle_gamma 90.00000
_space_group_name_H-M_alt      'P 1'


loop_
_space_group_symop_operation_xyz
  'x, y, z' 

loop_
_atom_site_label
_atom_site_fract_x
_atom_site_fract_y
_atom_site_fract_z
_atom_site_type_symbol
C0      0.8092  0.95063   0.0251     C
C1       0.891  0.94999   0.9242     C
C2      0.9484  0.00897   0.8831     C
H3      0.0053   0.0089   0.8162     H
C4      0.9267  0.06739   0.9349     C
H5      0.9689   0.1067   0.9045     H
C6      0.8424  0.06844   0.0322     C
H7      0.8235   0.1086   0.0685     H
C8      0.7869  0.01077   0.0751     C
H9      0.7306   0.0118   0.1422     H
C10     0.7447  0.88818   0.0746     C
H11     0.6994   0.8975   0.1459     H
H12     0.8438   0.8571   0.0823     H
H13     0.6491   0.8694   0.0277     H
C14     0.9199  0.88752   0.8641     C
H15     0.9548   0.8975   0.7906     H
H16     0.8093    0.862   0.8605     H
H17     0.0145   0.8622   0.9018     H
S18    0.29725  0.19508  0.75539     S
O19    0.29768  0.21105  0.87082     O
C20     0.3214  0.10902  0.74609     C
O21    0.45171  0.22392  0.70337     O
C22     0.2527  0.07484   0.6563     C
H23     0.1877   0.0974   0.6001     H
O24    0.12855  0.21197  0.69651     O
C25     0.2786  0.00801  0.64841     C
H26     0.2324   0.9854   0.5861     H
C27     0.3719  0.97293   0.7308     C
C28      0.441  0.00792   0.8195     C
H29     0.5064   0.9853   0.8755     H
C30     0.4173  0.07501  0.82887     C
H31     0.4653   0.0977   0.8906     H
C32     0.4024  0.89902   0.7268     C
H33     0.5326   0.8912   0.7285     H
H34     0.3573   0.8798   0.7937     H
C35     0.3198  0.86258   0.6327     C
H36     0.1899   0.8676   0.6317     H
H37     0.3506   0.8162   0.6391     H
H38     0.3647     0.88   0.5655     H
N39     0.8002  0.22398  0.81573     N
H40     0.6971   0.2184   0.7801     H
H41     0.9001   0.2207   0.7817     H
N42     0.9627  0.24522  0.97504     N
H43     0.0623   0.2416   0.9409     H
H44     0.9666    0.254   0.0447     H
N45     0.6544  0.24229  0.97301     N
H46      0.551   0.2367   0.9377     H
H47     0.6583   0.2511   0.0427     H
C48     0.8051  0.23732  0.92101     C
loop_
_geom_bond_atom_site_label_1
_geom_bond_atom_site_label_2
_geom_bond_distance
_geom_bond_site_symmetry_2
_ccdc_geom_bond_type
H40   O21    2.03476       .     S
O21   H40    2.03476       .     S
H41   O24    2.06400   1_655     S
O24   H41    2.06400   1_455     S
H43   O19    2.10108       .     S
O19   H43    2.10108       .     S
H46   O19    2.10390       .     S
O19   H46    2.10390       .     S
C0    C1     1.41808   1_554     S
C1    C0     1.41808   1_556     S
C0    C8     1.39175   1_565     S
C8    C0     1.39175   1_545     S
C0    C10    1.50770       .     S
C10   C0     1.50770       .     S
C1    C2     1.38698   1_565     S
C2    C1     1.38698   1_545     S
C1    C14    1.50056       .     S
C14   C1     1.50056       .     S
C2    H3     0.94987   1_655     S
H3    C2     0.94987   1_455     S
C2    C4     1.37046       .     S
C4    C2     1.37046       .     S
C4    H5     0.94929       .     S
H5    C4     0.94929       .     S
C4    C6     1.38740   1_556     S
C6    C4     1.38740   1_554     S
C6    H7     0.95087       .     S
H7    C6     0.95087       .     S
C6    C8     1.36781       .     S
C8    C6     1.36781       .     S
C8    H9     0.95011       .     S
H9    C8     0.95011       .     S
C10   H11    0.97970       .     S
H11   C10    0.97970       .     S
C10   H12    0.98016       .     S
H12   C10    0.98016       .     S
C10   H13    0.97968       .     S
H13   C10    0.97968       .     S
C14   H15    0.98029       .     S
H15   C14    0.98029       .     S
C14   H16    0.98027       .     S
H16   C14    0.98027       .     S
C14   H17    0.97925   1_655     S
H17   C14    0.97925   1_455     S
S18   O19    1.46546       .     S
O19   S18    1.46546       .     S
S18   C20    1.77551       .     S
C20   S18    1.77551       .     S
S18   O21    1.47651       .     S
O21   S18    1.47651       .     S
S18   O24    1.47169       .     S
O24   S18    1.47169       .     S
C20   C22    1.39121       .     S
C22   C20    1.39121       .     S
C20   C30    1.40777       .     S
C30   C20    1.40777       .     S
C22   H23    0.95004       .     S
H23   C22    0.95004       .     S
C22   C25    1.38607       .     S
C25   C22    1.38607       .     S
C25   H26    0.95055   1_545     S
H26   C25    0.95055   1_565     S
C25   C27    1.40622   1_545     S
C27   C25    1.40622   1_565     S
C27   C28    1.39018   1_565     S
C28   C27    1.39018   1_545     S
C27   C32    1.53155       .     S
C32   C27    1.53155       .     S
C28   H29    0.95033   1_545     S
H29   C28    0.95033   1_565     S
C28   C30    1.39057       .     S
C30   C28    1.39057       .     S
C30   H31    0.95018       .     S
H31   C30    0.95018       .     S
C32   H33    0.98979       .     S
H33   C32    0.98979       .     S
C32   H34    0.99104       .     S
H34   C32    0.99104       .     S
C32   C35    1.49263       .     S
C35   C32    1.49263       .     S
C35   H36    0.98017       .     S
H36   C35    0.98017       .     S
C35   H37    0.97959       .     S
H37   C35    0.97959       .     S
C35   H38    0.97963       .     S
H38   C35    0.97963       .     S
N39   H40    0.87965       .     S
H40   N39    0.87965       .     S
N39   H41    0.88032       .     S
H41   N39    0.88032       .     S
N39   C48    1.33014       .     S
C48   N39    1.33014       .     S
N42   H43    0.87962   1_655     S
H43   N42    0.87962   1_455     S
N42   H44    0.87982   1_556     S
H44   N42    0.87982   1_554     S
N42   C48    1.34057       .     S
C48   N42    1.34057       .     S
N45   H46    0.87980       .     S
H46   N45    0.87980       .     S
N45   H47    0.88031   1_556     S
H47   N45    0.88031   1_554     S
N45   C48    1.33230       .     S
C48   N45    1.33230       .     S
O21   H40    2.03476       .     S
H40   O21    2.03476       .     S
O24   H41    2.06400   1_455     S
H41   O24    2.06400   1_655     S
O19   H43    2.10108       .     S
H43   O19    2.10108       .     S
O19   H46    2.10390       .     S
H46   O19    2.10390       .     S
C1    C0     1.41808   1_556     S
C0    C1     1.41808   1_554     S
C8    C0     1.39175   1_545     S
C0    C8     1.39175   1_565     S
C10   C0     1.50770       .     S
C0    C10    1.50770       .     S
C2    C1     1.38698   1_545     S
C1    C2     1.38698   1_565     S
C14   C1     1.50056       .     S
C1    C14    1.50056       .     S
H3    C2     0.94987   1_455     S
C2    H3     0.94987   1_655     S
C4    C2     1.37046       .     S
C2    C4     1.37046       .     S
H5    C4     0.94929       .     S
C4    H5     0.94929       .     S
C6    C4     1.38740   1_554     S
C4    C6     1.38740   1_556     S
H7    C6     0.95087       .     S
C6    H7     0.95087       .     S
C8    C6     1.36781       .     S
C6    C8     1.36781       .     S
H9    C8     0.95011       .     S
C8    H9     0.95011       .     S
H11   C10    0.97970       .     S
C10   H11    0.97970       .     S
H12   C10    0.98016       .     S
C10   H12    0.98016       .     S
H13   C10    0.97968       .     S
C10   H13    0.97968       .     S
H15   C14    0.98029       .     S
C14   H15    0.98029       .     S
H16   C14    0.98027       .     S
C14   H16    0.98027       .     S
H17   C14    0.97925   1_455     S
C14   H17    0.97925   1_655     S
O19   S18    1.46546       .     S
S18   O19    1.46546       .     S
C20   S18    1.77551       .     S
S18   C20    1.77551       .     S
O21   S18    1.47651       .     S
S18   O21    1.47651       .     S
O24   S18    1.47169       .     S
S18   O24    1.47169       .     S
C22   C20    1.39121       .     S
C20   C22    1.39121       .     S
C30   C20    1.40777       .     S
C20   C30    1.40777       .     S
H23   C22    0.95004       .     S
C22   H23    0.95004       .     S
C25   C22    1.38607       .     S
C22   C25    1.38607       .     S
H26   C25    0.95055   1_565     S
C25   H26    0.95055   1_545     S
C27   C25    1.40622   1_565     S
C25   C27    1.40622   1_545     S
C28   C27    1.39018   1_545     S
C27   C28    1.39018   1_565     S
C32   C27    1.53155       .     S
C27   C32    1.53155       .     S
H29   C28    0.95033   1_565     S
C28   H29    0.95033   1_545     S
C30   C28    1.39057       .     S
C28   C30    1.39057       .     S
H31   C30    0.95018       .     S
C30   H31    0.95018       .     S
H33   C32    0.98979       .     S
C32   H33    0.98979       .     S
H34   C32    0.99104       .     S
C32   H34    0.99104       .     S
C35   C32    1.49263       .     S
C32   C35    1.49263       .     S
H36   C35    0.98017       .     S
C35   H36    0.98017       .     S
H37   C35    0.97959       .     S
C35   H37    0.97959       .     S
H38   C35    0.97963       .     S
C35   H38    0.97963       .     S
H40   N39    0.87965       .     S
N39   H40    0.87965       .     S
H41   N39    0.88032       .     S
N39   H41    0.88032       .     S
C48   N39    1.33014       .     S
N39   C48    1.33014       .     S
H43   N42    0.87962   1_455     S
N42   H43    0.87962   1_655     S
H44   N42    0.87982   1_554     S
N42   H44    0.87982   1_556     S
C48   N42    1.34057       .     S
N42   C48    1.34057       .     S
H46   N45    0.87980       .     S
N45   H46    0.87980       .     S
H47   N45    0.88031   1_554     S
N45   H47    0.88031   1_556     S
C48   N45    1.33230       .     S
N45   C48    1.33230       .     S
