data_I
_chemical_name_common  '/data/user2/wty/HOF/MOFDiff/mofdiff/data/test/2_g4tbbs0671'
_cell_length_a 19.16900
_cell_length_b 22.00400
_cell_length_c 13.22770
_cell_angle_alpha 90.00000
_cell_angle_beta  103.58200
_cell_angle_gamma 90.00000
_space_group_name_H-M_alt      'P 1'


loop_
_space_group_symop_operation_xyz
  'x, y, z' 

loop_
_atom_site_label
_atom_site_fract_x
_atom_site_fract_y
_atom_site_fract_z
_atom_site_type_symbol
C0      0.1151   0.4467   0.9532     C
H1      0.0787   0.4396   0.8919     H
C2      0.1448   0.4036   0.9958     C
C3      0.0906   0.4349   0.0274     C
H4      0.0458   0.4162   0.0265     H
C5      0.1529      0.4   0.0034     C
C6      0.1291   0.5059    0.991     C
H7      0.1042   0.5384   0.9507     H
C8      0.2144   0.4684   0.1333     C
H9       0.249   0.4748   0.1967     H
C10     0.2023     0.41   0.0937     C
H11     0.2288   0.3769   0.1298     H
C12     0.1047    0.496   0.0611     C
H13     0.0666   0.5213   0.0708     H
C14    0.17526  0.51941   0.0801     C
C15     0.2229   0.4899   0.0479     C
H16     0.2686    0.508   0.0543     H
C17      0.211   0.4311   0.0029     C
H18     0.2476   0.4111   0.9781     H
S19    0.13549  0.32681  0.95152     S
O20    0.16677  0.32345  0.86073     O
O21    0.17183  0.28595  0.03456     O
O22      0.058   0.3173  0.92301     O
C23     0.1879  0.58371   0.1237     C
C24     0.1196   0.6141   0.1324     C
H25     0.1294   0.6567   0.1528     H
H26        0.1   0.5932   0.1851     H
H27     0.0848   0.6123   0.0652     H
C28     0.2218   0.6218   0.0533     C
H29     0.2344   0.6618    0.085     H
H30     0.1877   0.6269   0.9858     H
H31     0.2652   0.6016   0.0432     H
C32     0.2376   0.5828   0.2317     C
H33     0.2845   0.5667   0.2276     H
H34     0.2169    0.557   0.2775     H
H35     0.2435   0.6243   0.2596     H
N36    0.42398  0.27162   0.9655     N
H37     0.4487   0.2526   0.0209     H
H38     0.4454   0.2841   0.9173     H
N39    0.32322  0.26225   0.0275     N
H40     0.3484   0.2433   0.0827     H
H41      0.277   0.2685   0.0209     H
N42    0.31767  0.31071   0.8719     N
H43     0.3392   0.3238   0.8241     H
H44     0.2715   0.3172   0.8647     H
C45    0.35482  0.28131   0.9546     C
N46    0.74742   0.2425   0.7292     N
H47     0.7696   0.2237   0.7864     H
H48     0.7706   0.2509   0.6808     H
N49    0.64447  0.24538   0.7888     N
H50     0.5988   0.2549   0.7797     H
H51     0.6672   0.2273   0.8465     H
N52    0.64479  0.28538   0.6291     N
H53     0.5992   0.2949   0.6199     H
H54     0.6678   0.2939   0.5805     H
C55    0.67887  0.25822   0.7158     C
S56    0.79948  0.32471  0.50097     S
O57    0.83692  0.30175  0.42487     O
O58    0.83346  0.30386  0.60567     O
O59     0.7227  0.31157  0.47363     O
C60    0.80736  0.40471   0.5012     C
C61    0.74826  0.44147   0.4843     C
H62     0.7017    0.424   0.4716     H
C63     0.7559  0.50378   0.4855     C
H64     0.7141   0.5284   0.4748     H
C65    0.82137  0.53139   0.5015     C
C66     0.8803  0.49362   0.5197     C
H67      0.927   0.5111   0.5332     H
C68    0.87354   0.4305   0.5189     C
H69     0.9151   0.4056   0.5308     H
C70     0.8276  0.60162    0.501     C
C71     0.7845   0.6263   0.3959     C
H72     0.7904   0.6705    0.394     H
H73     0.7336   0.6165   0.3876     H
H74      0.802   0.6076   0.3394     H
C75     0.7987   0.6273    0.591     C
H76     0.8249   0.6091   0.6566     H
H77     0.7475   0.6176   0.5797     H
H78     0.8051   0.6715   0.5942     H
C79     0.9052  0.62236   0.5153     C
H80     0.9332   0.6092   0.5836     H
H81     0.9067   0.6668   0.5109     H
H82     0.9255   0.6045   0.4607     H
C83     0.9839  0.49041   0.2524     C
H84     0.9969   0.5319   0.2651     H
C85     0.0242    0.453   0.2032     C
H86     0.0647   0.4689   0.1822     H
C87     0.0051   0.3924   0.1846     C
H88     0.0326   0.3668   0.1509     H
C89     0.9459  0.36912   0.2152     C
H90     0.9329   0.3277   0.2025     H
C91     0.9057   0.4065   0.2645     C
H92     0.8652   0.3906   0.2854     H
C93     0.9247   0.4672   0.2831     C
H94     0.8972   0.4927   0.3167     H
N95    0.08717  0.25966   0.6762     N
H96     0.1097    0.239   0.6367     H
H97     0.1103   0.2713   0.7388     H
N98    0.98315  0.25611   0.5475     N
H99     0.0053   0.2354   0.5074     H
H100    0.9375   0.2654   0.5251     H
N101   0.98496  0.30449   0.7019     N
H102    0.0083   0.3159   0.7645     H
H103    0.9393   0.3137   0.6793     H
C104   0.01864  0.27331   0.6416     C
loop_
_geom_bond_atom_site_label_1
_geom_bond_atom_site_label_2
_geom_bond_distance
_geom_bond_site_symmetry_2
_ccdc_geom_bond_type
H41   O21    2.10130       .     S
O21   H41    2.10130       .     S
H44   O20    2.00062       .     S
O20   H44    2.00062       .     S
H48   O58    2.08806       .     S
O58   H48    2.08806       .     S
H54   O59    1.98892       .     S
O59   H54    1.98892       .     S
H97   O20    2.06636       .     S
O20   H97    2.06636       .     S
H100  O57    2.21680       .     S
O57   H100   2.21680       .     S
H102  O22    2.08965       .     S
O22   H102   2.08965       .     S
H103  O58    2.04539       .     S
O58   H103   2.04539       .     S
C0    H1     0.95028       .     S
H1    C0     0.95028       .     S
C0    C2     1.17915       .     S
C2    C0     1.17915       .     S
C0    C3     1.21153   1_556     S
C3    C0     1.21153   1_554     S
C0    C5     1.34012   1_556     S
C5    C0     1.34012   1_554     S
C0    C6     1.39852       .     S
C6    C0     1.39852       .     S
C2    C3     1.39013   1_556     S
C3    C2     1.39013   1_554     S
C2    C5     0.18209   1_556     S
C5    C2     0.18209   1_554     S
C2    C10    1.49711   1_556     S
C10   C2     1.49711   1_554     S
C2    C17    1.38900   1_556     S
C17   C2     1.38900   1_554     S
C2    S19    1.78350       .     S
S19   C2     1.78350       .     S
C3    H4     0.94981       .     S
H4    C3     0.94981       .     S
C3    C5     1.51485       .     S
C5    C3     1.51485       .     S
C3    C12    1.42222       .     S
C12   C3     1.42222       .     S
C5    C10    1.35670       .     S
C10   C5     1.35670       .     S
C5    C17    1.30850       .     S
C17   C5     1.30850       .     S
C5    S19    1.75168   1_554     S
S19   C5     1.75168   1_556     S
C6    H7     0.95074       .     S
H7    C6     0.95074       .     S
C6    C12    1.15314   1_556     S
C12   C6     1.15314   1_554     S
C6    C14    1.33063   1_556     S
C14   C6     1.33063   1_554     S
C8    H9     0.94963       .     S
H9    C8     0.94963       .     S
C8    C10    1.38652       .     S
C10   C8     1.38652       .     S
C8    C14    1.43874       .     S
C14   C8     1.43874       .     S
C8    C15    1.27000       .     S
C15   C8     1.27000       .     S
C10   H11    0.95006       .     S
H11   C10    0.95006       .     S
C10   C17    1.33418       .     S
C17   C10    1.33418       .     S
C12   H13    0.95068       .     S
H13   C12    0.95068       .     S
C12   C14    1.41361       .     S
C14   C12    1.41361       .     S
C14   C15    1.27267       .     S
C15   C14    1.27267       .     S
C14   C23    1.52562       .     S
C23   C14    1.52562       .     S
C15   H16    0.94783       .     S
H16   C15    0.94783       .     S
C15   C17    1.42007       .     S
C17   C15    1.42007       .     S
C17   H18    0.94953   1_554     S
H18   C17    0.94953   1_556     S
S19   O20    1.46474       .     S
O20   S19    1.46474       .     S
S19   O21    1.46314   1_556     S
O21   S19    1.46314   1_554     S
S19   O22    1.45923       .     S
O22   S19    1.45923       .     S
C23   C24    1.49843       .     S
C24   C23    1.49843       .     S
C23   C28    1.50869       .     S
C28   C23    1.50869       .     S
C23   C32    1.51976       .     S
C32   C23    1.51976       .     S
C24   H25    0.98131       .     S
H25   C24    0.98131       .     S
C24   H26    0.98062       .     S
H26   C24    0.98062       .     S
C24   H27    0.97888       .     S
H27   C24    0.97888       .     S
C28   H29    0.98045       .     S
H29   C28    0.98045       .     S
C28   H30    0.98131   1_554     S
H30   C28    0.98131   1_556     S
C28   H31    0.97966       .     S
H31   C28    0.97966       .     S
C32   H33    0.97959       .     S
H33   C32    0.97959       .     S
C32   H34    0.97963       .     S
H34   C32    0.97963       .     S
C32   H35    0.98146       .     S
H35   C32    0.98146       .     S
N36   H37    0.87956   1_556     S
H37   N36    0.87956   1_554     S
N36   H38    0.87947       .     S
H38   N36    0.87947       .     S
N36   C45    1.31683       .     S
C45   N36    1.31683       .     S
N39   H40    0.88004       .     S
H40   N39    0.88004       .     S
N39   H41    0.88045       .     S
H41   N39    0.88045       .     S
N39   C45    1.32175   1_554     S
C45   N39    1.32175   1_556     S
N42   H43    0.88070       .     S
H43   N42    0.88070       .     S
N42   H44    0.87929       .     S
H44   N42    0.87929       .     S
N42   C45    1.32530       .     S
C45   N42    1.32530       .     S
N46   H47    0.87937       .     S
H47   N46    0.87937       .     S
N46   H48    0.88039       .     S
H48   N46    0.88039       .     S
N46   C55    1.32980       .     S
C55   N46    1.32980       .     S
N49   H50    0.88050       .     S
H50   N49    0.88050       .     S
N49   H51    0.88003       .     S
H51   N49    0.88003       .     S
N49   C55    1.32142       .     S
C55   N49    1.32142       .     S
N52   H53    0.87890       .     S
H53   N52    0.87890       .     S
N52   H54    0.88099       .     S
H54   N52    0.88099       .     S
N52   C55    1.32185       .     S
C55   N52    1.32185       .     S
S56   O57    1.45703       .     S
O57   S56    1.45703       .     S
S56   O58    1.45915       .     S
O58   S56    1.45915       .     S
S56   O59    1.45965       .     S
O59   S56    1.45965       .     S
S56   C60    1.76673       .     S
C60   S56    1.76673       .     S
C60   C61    1.36701       .     S
C61   C60    1.36701       .     S
C60   C68    1.35894       .     S
C68   C60    1.35894       .     S
C61   H62    0.94981       .     S
H62   C61    0.94981       .     S
C61   C63    1.37856       .     S
C63   C61    1.37856       .     S
C63   H64    0.94988       .     S
H64   C63    0.94988       .     S
C63   C65    1.36534       .     S
C65   C63    1.36534       .     S
C65   C66    1.37732       .     S
C66   C65    1.37732       .     S
C65   C70    1.55008       .     S
C70   C65    1.55008       .     S
C66   H67    0.95190       .     S
H67   C66    0.95190       .     S
C66   C68    1.39473       .     S
C68   C66    1.39473       .     S
C68   H69    0.94908       .     S
H69   C68    0.94908       .     S
C70   C71    1.53973       .     S
C71   C70    1.53973       .     S
C70   C75    1.53402       .     S
C75   C70    1.53402       .     S
C70   C79    1.52466       .     S
C79   C70    1.52466       .     S
C71   H72    0.98013       .     S
H72   C71    0.98013       .     S
C71   H73    0.97992       .     S
H73   C71    0.97992       .     S
C71   H74    0.97885       .     S
H74   C71    0.97885       .     S
C75   H76    0.98025       .     S
H76   C75    0.98025       .     S
C75   H77    0.98094       .     S
H77   C75    0.98094       .     S
C75   H78    0.97995       .     S
H78   C75    0.97995       .     S
C79   H80    0.98000       .     S
H80   C79    0.98000       .     S
C79   H81    0.98041       .     S
H81   C79    0.98041       .     S
C79   H82    0.97953       .     S
H82   C79    0.97953       .     S
C83   H84    0.95086       .     S
H84   C83    0.95086       .     S
C83   C85    1.39070   1_655     S
C85   C83    1.39070   1_455     S
C83   C93    1.38923       .     S
C93   C83    1.38923       .     S
C85   H86    0.95056       .     S
H86   C85    0.95056       .     S
C85   C87    1.38937       .     S
C87   C85    1.38937       .     S
C87   H88    0.95093       .     S
H88   C87    0.95093       .     S
C87   C89    1.38916   1_455     S
C89   C87    1.38916   1_655     S
C89   H90    0.94938       .     S
H90   C89    0.94938       .     S
C89   C91    1.38983       .     S
C91   C89    1.38983       .     S
C91   H92    0.94992       .     S
H92   C91    0.94992       .     S
C91   C93    1.39106       .     S
C93   C91    1.39106       .     S
C93   H94    0.94884       .     S
H94   C93    0.94884       .     S
N95   H96    0.87873       .     S
H96   N95    0.87873       .     S
N95   H97    0.88058       .     S
H97   N95    0.88058       .     S
N95   C104   1.32022       .     S
C104  N95    1.32022       .     S
N98   H99    0.88039   1_655     S
H99   N98    0.88039   1_455     S
N98   H100   0.87951       .     S
H100  N98    0.87951       .     S
N98   C104   1.32578   1_655     S
C104  N98    1.32578   1_455     S
N101  H102   0.88027   1_655     S
H102  N101   0.88027   1_455     S
N101  H103   0.87956       .     S
H103  N101   0.87956       .     S
N101  C104   1.32876   1_655     S
C104  N101   1.32876   1_455     S
O21   H41    2.10130       .     S
H41   O21    2.10130       .     S
O20   H44    2.00062       .     S
H44   O20    2.00062       .     S
O58   H48    2.08806       .     S
H48   O58    2.08806       .     S
O59   H54    1.98892       .     S
H54   O59    1.98892       .     S
O20   H97    2.06636       .     S
H97   O20    2.06636       .     S
O57   H100   2.21680       .     S
H100  O57    2.21680       .     S
O22   H102   2.08965       .     S
H102  O22    2.08965       .     S
O58   H103   2.04539       .     S
H103  O58    2.04539       .     S
H1    C0     0.95028       .     S
C0    H1     0.95028       .     S
C2    C0     1.17915       .     S
C0    C2     1.17915       .     S
C3    C0     1.21153   1_554     S
C0    C3     1.21153   1_556     S
C5    C0     1.34012   1_554     S
C0    C5     1.34012   1_556     S
C6    C0     1.39852       .     S
C0    C6     1.39852       .     S
C3    C2     1.39013   1_554     S
C2    C3     1.39013   1_556     S
C5    C2     0.18209   1_554     S
C2    C5     0.18209   1_556     S
C10   C2     1.49711   1_554     S
C2    C10    1.49711   1_556     S
C17   C2     1.38900   1_554     S
C2    C17    1.38900   1_556     S
S19   C2     1.78350       .     S
C2    S19    1.78350       .     S
H4    C3     0.94981       .     S
C3    H4     0.94981       .     S
C5    C3     1.51485       .     S
C3    C5     1.51485       .     S
C12   C3     1.42222       .     S
C3    C12    1.42222       .     S
C10   C5     1.35670       .     S
C5    C10    1.35670       .     S
C17   C5     1.30850       .     S
C5    C17    1.30850       .     S
S19   C5     1.75168   1_556     S
C5    S19    1.75168   1_554     S
H7    C6     0.95074       .     S
C6    H7     0.95074       .     S
C12   C6     1.15314   1_554     S
C6    C12    1.15314   1_556     S
C14   C6     1.33063   1_554     S
C6    C14    1.33063   1_556     S
H9    C8     0.94963       .     S
C8    H9     0.94963       .     S
C10   C8     1.38652       .     S
C8    C10    1.38652       .     S
C14   C8     1.43874       .     S
C8    C14    1.43874       .     S
C15   C8     1.27000       .     S
C8    C15    1.27000       .     S
H11   C10    0.95006       .     S
C10   H11    0.95006       .     S
C17   C10    1.33418       .     S
C10   C17    1.33418       .     S
H13   C12    0.95068       .     S
C12   H13    0.95068       .     S
C14   C12    1.41361       .     S
C12   C14    1.41361       .     S
C15   C14    1.27267       .     S
C14   C15    1.27267       .     S
C23   C14    1.52562       .     S
C14   C23    1.52562       .     S
H16   C15    0.94783       .     S
C15   H16    0.94783       .     S
C17   C15    1.42007       .     S
C15   C17    1.42007       .     S
H18   C17    0.94953   1_556     S
C17   H18    0.94953   1_554     S
O20   S19    1.46474       .     S
S19   O20    1.46474       .     S
O21   S19    1.46314   1_554     S
S19   O21    1.46314   1_556     S
O22   S19    1.45923       .     S
S19   O22    1.45923       .     S
C24   C23    1.49843       .     S
C23   C24    1.49843       .     S
C28   C23    1.50869       .     S
C23   C28    1.50869       .     S
C32   C23    1.51976       .     S
C23   C32    1.51976       .     S
H25   C24    0.98131       .     S
C24   H25    0.98131       .     S
H26   C24    0.98062       .     S
C24   H26    0.98062       .     S
H27   C24    0.97888       .     S
C24   H27    0.97888       .     S
H29   C28    0.98045       .     S
C28   H29    0.98045       .     S
H30   C28    0.98131   1_556     S
C28   H30    0.98131   1_554     S
H31   C28    0.97966       .     S
C28   H31    0.97966       .     S
H33   C32    0.97959       .     S
C32   H33    0.97959       .     S
H34   C32    0.97963       .     S
C32   H34    0.97963       .     S
H35   C32    0.98146       .     S
C32   H35    0.98146       .     S
H37   N36    0.87956   1_554     S
N36   H37    0.87956   1_556     S
H38   N36    0.87947       .     S
N36   H38    0.87947       .     S
C45   N36    1.31683       .     S
N36   C45    1.31683       .     S
H40   N39    0.88004       .     S
N39   H40    0.88004       .     S
H41   N39    0.88045       .     S
N39   H41    0.88045       .     S
C45   N39    1.32175   1_556     S
N39   C45    1.32175   1_554     S
H43   N42    0.88070       .     S
N42   H43    0.88070       .     S
H44   N42    0.87929       .     S
N42   H44    0.87929       .     S
C45   N42    1.32530       .     S
N42   C45    1.32530       .     S
H47   N46    0.87937       .     S
N46   H47    0.87937       .     S
H48   N46    0.88039       .     S
N46   H48    0.88039       .     S
C55   N46    1.32980       .     S
N46   C55    1.32980       .     S
H50   N49    0.88050       .     S
N49   H50    0.88050       .     S
H51   N49    0.88003       .     S
N49   H51    0.88003       .     S
C55   N49    1.32142       .     S
N49   C55    1.32142       .     S
H53   N52    0.87890       .     S
N52   H53    0.87890       .     S
H54   N52    0.88099       .     S
N52   H54    0.88099       .     S
C55   N52    1.32185       .     S
N52   C55    1.32185       .     S
O57   S56    1.45703       .     S
S56   O57    1.45703       .     S
O58   S56    1.45915       .     S
S56   O58    1.45915       .     S
O59   S56    1.45965       .     S
S56   O59    1.45965       .     S
C60   S56    1.76673       .     S
S56   C60    1.76673       .     S
C61   C60    1.36701       .     S
C60   C61    1.36701       .     S
C68   C60    1.35894       .     S
C60   C68    1.35894       .     S
H62   C61    0.94981       .     S
C61   H62    0.94981       .     S
C63   C61    1.37856       .     S
C61   C63    1.37856       .     S
H64   C63    0.94988       .     S
C63   H64    0.94988       .     S
C65   C63    1.36534       .     S
C63   C65    1.36534       .     S
C66   C65    1.37732       .     S
C65   C66    1.37732       .     S
C70   C65    1.55008       .     S
C65   C70    1.55008       .     S
H67   C66    0.95190       .     S
C66   H67    0.95190       .     S
C68   C66    1.39473       .     S
C66   C68    1.39473       .     S
H69   C68    0.94908       .     S
C68   H69    0.94908       .     S
C71   C70    1.53973       .     S
C70   C71    1.53973       .     S
C75   C70    1.53402       .     S
C70   C75    1.53402       .     S
C79   C70    1.52466       .     S
C70   C79    1.52466       .     S
H72   C71    0.98013       .     S
C71   H72    0.98013       .     S
H73   C71    0.97992       .     S
C71   H73    0.97992       .     S
H74   C71    0.97885       .     S
C71   H74    0.97885       .     S
H76   C75    0.98025       .     S
C75   H76    0.98025       .     S
H77   C75    0.98094       .     S
C75   H77    0.98094       .     S
H78   C75    0.97995       .     S
C75   H78    0.97995       .     S
H80   C79    0.98000       .     S
C79   H80    0.98000       .     S
H81   C79    0.98041       .     S
C79   H81    0.98041       .     S
H82   C79    0.97953       .     S
C79   H82    0.97953       .     S
H84   C83    0.95086       .     S
C83   H84    0.95086       .     S
C85   C83    1.39070   1_455     S
C83   C85    1.39070   1_655     S
C93   C83    1.38923       .     S
C83   C93    1.38923       .     S
H86   C85    0.95056       .     S
C85   H86    0.95056       .     S
C87   C85    1.38937       .     S
C85   C87    1.38937       .     S
H88   C87    0.95093       .     S
C87   H88    0.95093       .     S
C89   C87    1.38916   1_655     S
C87   C89    1.38916   1_455     S
H90   C89    0.94938       .     S
C89   H90    0.94938       .     S
C91   C89    1.38983       .     S
C89   C91    1.38983       .     S
H92   C91    0.94992       .     S
C91   H92    0.94992       .     S
C93   C91    1.39106       .     S
C91   C93    1.39106       .     S
H94   C93    0.94884       .     S
C93   H94    0.94884       .     S
H96   N95    0.87873       .     S
N95   H96    0.87873       .     S
H97   N95    0.88058       .     S
N95   H97    0.88058       .     S
C104  N95    1.32022       .     S
N95   C104   1.32022       .     S
H99   N98    0.88039   1_455     S
N98   H99    0.88039   1_655     S
H100  N98    0.87951       .     S
N98   H100   0.87951       .     S
C104  N98    1.32578   1_455     S
N98   C104   1.32578   1_655     S
H102  N101   0.88027   1_455     S
N101  H102   0.88027   1_655     S
H103  N101   0.87956       .     S
N101  H103   0.87956       .     S
C104  N101   1.32876   1_455     S
N101  C104   1.32876   1_655     S
