data_I
_chemical_name_common  '/data/user2/wty/HOF/MOFDiff/mofdiff/data/test/2_g4ipbs'
_cell_length_a 14.50100
_cell_length_b 12.68600
_cell_length_c 47.58400
_cell_angle_alpha 90.00000
_cell_angle_beta  90.00000
_cell_angle_gamma 90.00000
_space_group_name_H-M_alt      'P 1'


loop_
_space_group_symop_operation_xyz
  'x, y, z' 

loop_
_atom_site_label
_atom_site_fract_x
_atom_site_fract_y
_atom_site_fract_z
_atom_site_type_symbol
N0      0.3743   0.4023  0.46707     N
H1      0.4274   0.3689    0.467     H
H2      0.3224   0.3665   0.4663     H
N3      0.4509   0.5591  0.46951     N
H4      0.5037   0.5249   0.4695     H
H5      0.4503   0.6284   0.4704     H
N6      0.2927   0.5567  0.46832     N
H7      0.2407   0.5209   0.4675     H
H8      0.2915   0.6259   0.4691     H
C9      0.3724   0.5063  0.46832     C
C10     0.9372   0.7886  0.66734     C
H11     0.0029   0.8121   0.6683     H
C12     0.9315   0.6865   0.6872     C
H13     0.9391   0.7078   0.7069     H
H14     0.9806   0.6369   0.6821     H
H15     0.8714   0.6523   0.6848     H
C16     0.8793   0.8901  0.67168     C
H17     0.8881   0.9161   0.6909     H
H18     0.8139   0.8742   0.6686     H
H19     0.8993   0.9441   0.6583     H
C20     0.9854   0.7338  0.68212     C
C21     0.9325   0.8962  0.67319     C
C22     0.0116   0.8068  0.67406     C
C23     0.8812   0.7618   0.6723     C
S24    0.88231  0.66585  0.54616     S
O25    0.88019  0.55257  0.54327     O
O26    0.95897  0.71331  0.53125     O
O27    0.79492  0.71445  0.53927     O
C28     0.9002   0.6939  0.58185     C
C29     0.9841    0.735  0.59087     C
H30     0.0329   0.7449   0.5778     H
C31     0.9963   0.7615  0.61896     C
H32     0.0536   0.7896   0.6251     H
C33     0.9248   0.7471  0.63803     C
C34      0.841    0.706    0.629     C
H35     0.7922   0.6962    0.642     H
C36     0.8287   0.6795  0.60091     C
H37     0.7715   0.6514   0.5947     H
N38    0.20083   0.4276  0.52655     N
H39     0.2535   0.4619   0.5256     H
H40     0.2005   0.3584   0.5277     H
N41    0.04336   0.4283  0.52718     N
H42      0.043    0.359   0.5279     H
H43      0.991   0.4634    0.527     H
N44    0.12269   0.5835  0.52462     N
H45     0.1752   0.6181   0.5237     H
H46     0.0701   0.6182   0.5245     H
C47     0.1228   0.4798   0.5263     C
N48     0.4538   0.0158  0.75099     N
H49     0.4556   0.0846   0.7533     H
H50     0.5052   0.9805    0.748     H
N51     0.3723   0.8618  0.74861     N
H52     0.3195   0.8277   0.7494     H
H53     0.4239    0.827   0.7456     H
N54     0.2971    0.017  0.75638     N
H55     0.2982   0.0857   0.7587     H
H56     0.2444   0.9828    0.757     H
C57     0.3741   0.9654  0.75196     C
loop_
_geom_bond_atom_site_label_1
_geom_bond_atom_site_label_2
_geom_bond_distance
_geom_bond_site_symmetry_2
_ccdc_geom_bond_type
H43   O25    2.11211       .     S
O25   H43    2.11211       .     S
H46   O26    2.03860   1_455     S
O26   H46    2.03860   1_655     S
N0    H1     0.87889       .     S
H1    N0     0.87889       .     S
N0    H2     0.87978       .     S
H2    N0     0.87978       .     S
N0    C9     1.32097       .     S
C9    N0     1.32097       .     S
N3    H4     0.88003       .     S
H4    N3     0.88003       .     S
N3    H5     0.88020       .     S
H5    N3     0.88020       .     S
N3    C9     1.32199       .     S
C9    N3     1.32199       .     S
N6    H7     0.88112       .     S
H7    N6     0.88112       .     S
N6    H8     0.87883       .     S
H8    N6     0.87883       .     S
N6    C9     1.32080       .     S
C9    N6     1.32080       .     S
C10   H11    0.99931   1_655     S
H11   C10    0.99931   1_455     S
C10   C12    1.60547       .     S
C12   C10    1.60547       .     S
C10   C16    1.55099       .     S
C16   C10    1.55099       .     S
C10   C20    1.21097       .     S
C20   C10    1.21097       .     S
C10   C21    1.39477       .     S
C21   C10    1.39477       .     S
C10   C22    1.14871   1_655     S
C22   C10    1.14871   1_455     S
C10   C23    0.91144       .     S
C23   C10    0.91144       .     S
C10   C33    1.50155       .     S
C33   C10    1.50155       .     S
H11   C20    1.21800   1_455     S
C20   H11    1.21800   1_655     S
H11   C22    0.30913       .     S
C22   H11    0.30913       .     S
C12   H13    0.98178       .     S
H13   C12    0.98178       .     S
C12   H14    0.98069       .     S
H14   C12    0.98069       .     S
C12   H15    0.98021       .     S
H15   C12    0.98021       .     S
C12   C20    1.01459       .     S
C20   C12    1.01459       .     S
C12   C23    1.39543       .     S
C23   C12    1.39543       .     S
H14   C20    1.23124       .     S
C20   H14    1.23124       .     S
C16   H17    0.98057       .     S
H17   C16    0.98057       .     S
C16   H18    0.98059       .     S
H18   C16    0.98059       .     S
C16   H19    0.97916       .     S
H19   C16    0.97916       .     S
C16   C21    0.77865       .     S
C21   C16    0.77865       .     S
C16   C23    1.62811       .     S
C23   C16    1.62811       .     S
H17   C21    1.09016       .     S
C21   H17    1.09016       .     S
H19   C21    1.05026       .     S
C21   H19    1.05026       .     S
C20   C22    1.07194   1_655     S
C22   C20    1.07194   1_455     S
C20   C23    1.62100       .     S
C23   C20    1.62100       .     S
C21   C22    1.61358   1_655     S
C22   C21    1.61358   1_455     S
C23   C33    1.75889       .     S
C33   C23    1.75889       .     S
S24   O25    1.44396       .     S
O25   S24    1.44396       .     S
S24   O26    1.44969       .     S
O26   S24    1.44969       .     S
S24   O27    1.44690       .     S
O27   S24    1.44690       .     S
S24   C28    1.75444       .     S
C28   S24    1.75444       .     S
C28   C29    1.39150       .     S
C29   C28    1.39150       .     S
C28   C36    1.38958       .     S
C36   C28    1.38958       .     S
C29   H30    0.95044   1_655     S
H30   C29    0.95044   1_455     S
C29   C31    1.38957       .     S
C31   C29    1.38957       .     S
C31   H32    0.95018   1_655     S
H32   C31    0.95018   1_455     S
C31   C33    1.38989       .     S
C33   C31    1.38989       .     S
C33   C34    1.39038       .     S
C34   C33    1.39038       .     S
C34   H35    0.94809       .     S
H35   C34    0.94809       .     S
C34   C36    1.38976       .     S
C36   C34    1.38976       .     S
C36   H37    0.94994       .     S
H37   C36    0.94994       .     S
N38   H39    0.88018       .     S
H39   N38    0.88018       .     S
N38   H40    0.87959       .     S
H40   N38    0.87959       .     S
N38   C47    1.31110       .     S
C47   N38    1.31110       .     S
N41   H42    0.87982       .     S
H42   N41    0.87982       .     S
N41   H43    0.88025   1_455     S
H43   N41    0.88025   1_655     S
N41   C47    1.32499       .     S
C47   N41    1.32499       .     S
N44   H45    0.87999       .     S
H45   N44    0.87999       .     S
N44   H46    0.88056       .     S
H46   N44    0.88056       .     S
N44   C47    1.31797       .     S
C47   N44    1.31797       .     S
N48   H49    0.88008       .     S
H49   N48    0.88008       .     S
N48   H50    0.88110   1_545     S
H50   N48    0.88110   1_565     S
N48   C57    1.32161   1_545     S
C57   N48    1.32161   1_565     S
N51   H52    0.88021       .     S
H52   N51    0.88021       .     S
N51   H53    0.88051       .     S
H53   N51    0.88051       .     S
N51   C57    1.32416       .     S
C57   N51    1.32416       .     S
N54   H55    0.87864       .     S
H55   N54    0.87864       .     S
N54   H56    0.87927   1_545     S
H56   N54    0.87927   1_565     S
N54   C57    1.31129   1_545     S
C57   N54    1.31129   1_565     S
O25   H43    2.11211       .     S
H43   O25    2.11211       .     S
O26   H46    2.03860   1_655     S
H46   O26    2.03860   1_455     S
H1    N0     0.87889       .     S
N0    H1     0.87889       .     S
H2    N0     0.87978       .     S
N0    H2     0.87978       .     S
C9    N0     1.32097       .     S
N0    C9     1.32097       .     S
H4    N3     0.88003       .     S
N3    H4     0.88003       .     S
H5    N3     0.88020       .     S
N3    H5     0.88020       .     S
C9    N3     1.32199       .     S
N3    C9     1.32199       .     S
H7    N6     0.88112       .     S
N6    H7     0.88112       .     S
H8    N6     0.87883       .     S
N6    H8     0.87883       .     S
C9    N6     1.32080       .     S
N6    C9     1.32080       .     S
H11   C10    0.99931   1_455     S
C10   H11    0.99931   1_655     S
C12   C10    1.60547       .     S
C10   C12    1.60547       .     S
C16   C10    1.55099       .     S
C10   C16    1.55099       .     S
C20   C10    1.21097       .     S
C10   C20    1.21097       .     S
C21   C10    1.39477       .     S
C10   C21    1.39477       .     S
C22   C10    1.14871   1_455     S
C10   C22    1.14871   1_655     S
C23   C10    0.91144       .     S
C10   C23    0.91144       .     S
C33   C10    1.50155       .     S
C10   C33    1.50155       .     S
C20   H11    1.21800   1_655     S
H11   C20    1.21800   1_455     S
C22   H11    0.30913       .     S
H11   C22    0.30913       .     S
H13   C12    0.98178       .     S
C12   H13    0.98178       .     S
H14   C12    0.98069       .     S
C12   H14    0.98069       .     S
H15   C12    0.98021       .     S
C12   H15    0.98021       .     S
C20   C12    1.01459       .     S
C12   C20    1.01459       .     S
C23   C12    1.39543       .     S
C12   C23    1.39543       .     S
C20   H14    1.23124       .     S
H14   C20    1.23124       .     S
H17   C16    0.98057       .     S
C16   H17    0.98057       .     S
H18   C16    0.98059       .     S
C16   H18    0.98059       .     S
H19   C16    0.97916       .     S
C16   H19    0.97916       .     S
C21   C16    0.77865       .     S
C16   C21    0.77865       .     S
C23   C16    1.62811       .     S
C16   C23    1.62811       .     S
C21   H17    1.09016       .     S
H17   C21    1.09016       .     S
C21   H19    1.05026       .     S
H19   C21    1.05026       .     S
C22   C20    1.07194   1_455     S
C20   C22    1.07194   1_655     S
C23   C20    1.62100       .     S
C20   C23    1.62100       .     S
C22   C21    1.61358   1_455     S
C21   C22    1.61358   1_655     S
C33   C23    1.75889       .     S
C23   C33    1.75889       .     S
O25   S24    1.44396       .     S
S24   O25    1.44396       .     S
O26   S24    1.44969       .     S
S24   O26    1.44969       .     S
O27   S24    1.44690       .     S
S24   O27    1.44690       .     S
C28   S24    1.75444       .     S
S24   C28    1.75444       .     S
C29   C28    1.39150       .     S
C28   C29    1.39150       .     S
C36   C28    1.38958       .     S
C28   C36    1.38958       .     S
H30   C29    0.95044   1_455     S
C29   H30    0.95044   1_655     S
C31   C29    1.38957       .     S
C29   C31    1.38957       .     S
H32   C31    0.95018   1_455     S
C31   H32    0.95018   1_655     S
C33   C31    1.38989       .     S
C31   C33    1.38989       .     S
C34   C33    1.39038       .     S
C33   C34    1.39038       .     S
H35   C34    0.94809       .     S
C34   H35    0.94809       .     S
C36   C34    1.38976       .     S
C34   C36    1.38976       .     S
H37   C36    0.94994       .     S
C36   H37    0.94994       .     S
H39   N38    0.88018       .     S
N38   H39    0.88018       .     S
H40   N38    0.87959       .     S
N38   H40    0.87959       .     S
C47   N38    1.31110       .     S
N38   C47    1.31110       .     S
H42   N41    0.87982       .     S
N41   H42    0.87982       .     S
H43   N41    0.88025   1_655     S
N41   H43    0.88025   1_455     S
C47   N41    1.32499       .     S
N41   C47    1.32499       .     S
H45   N44    0.87999       .     S
N44   H45    0.87999       .     S
H46   N44    0.88056       .     S
N44   H46    0.88056       .     S
C47   N44    1.31797       .     S
N44   C47    1.31797       .     S
H49   N48    0.88008       .     S
N48   H49    0.88008       .     S
H50   N48    0.88110   1_565     S
N48   H50    0.88110   1_545     S
C57   N48    1.32161   1_565     S
N48   C57    1.32161   1_545     S
H52   N51    0.88021       .     S
N51   H52    0.88021       .     S
H53   N51    0.88051       .     S
N51   H53    0.88051       .     S
C57   N51    1.32416       .     S
N51   C57    1.32416       .     S
H55   N54    0.87864       .     S
N54   H55    0.87864       .     S
H56   N54    0.87927   1_565     S
N54   H56    0.87927   1_545     S
C57   N54    1.31129   1_565     S
N54   C57    1.31129   1_545     S
