data_I
_chemical_name_common  '/data/user2/wty/HOF/MOFDiff/mofdiff/data/test/2_g4fbs'
_cell_length_a  7.46940
_cell_length_b 38.23300
_cell_length_c 11.27210
_cell_angle_alpha 90.00000
_cell_angle_beta  93.00700
_cell_angle_gamma 90.00000
_space_group_name_H-M_alt      'P 1'


loop_
_space_group_symop_operation_xyz
  'x, y, z' 

loop_
_atom_site_label
_atom_site_fract_x
_atom_site_fract_y
_atom_site_fract_z
_atom_site_type_symbol
N0      0.2239  0.14911   0.1439     N
H1      0.1194   0.1485   0.1041     H
H2      0.3231   0.1509   0.1056     H
N3      0.3894  0.14862   0.3213     N
H4      0.3952   0.1477   0.3994     H
H5      0.4883   0.1504   0.2826     H
N6      0.0827  0.14464   0.3195     N
H7      0.0879   0.1437   0.3976     H
H8      0.9783   0.1438   0.2797     H
C9      0.2318  0.14735    0.262     C
N10     0.6424   0.0859    0.771     N
H11     0.6447   0.0652   0.8055     H
H12     0.5394   0.0966   0.7562     H
N13     0.7893   0.1322   0.6899     N
H14     0.6863    0.143   0.6757     H
H15     0.8897   0.1421   0.6701     H
N16     0.9493  0.08493   0.7631     N
H17     0.9533   0.0643   0.7976     H
H18      0.049   0.0951    0.743     H
C19     0.7931  0.10074   0.7415     C
N20     0.6994  0.02409   0.1266     N
H21     0.5982   0.0138   0.1425     H
H22     0.8021   0.0133   0.1415     H
N23      0.543  0.07234   0.0579     N
H24     0.4413   0.0622   0.0736     H
H25     0.5425   0.0935   0.0272     H
N26     0.8501  0.07134   0.0564     N
H27     0.9528   0.0605    0.071     H
H28     0.8487   0.0925   0.0256     H
C29     0.6973  0.05579   0.0806     C
C30      0.285   0.9996    0.548     C
H31     0.3023   0.9816   0.6056     H
C32     0.1998   0.9938   0.4261     C
H33      0.163    0.971   0.4016     H
C34     0.2721   0.9928   0.4247     C
H35     0.2919   0.9697   0.3971     H
C36      0.221   0.0014    0.541     C
H37     0.2032   0.9836   0.5974     H
F38     0.2893  0.04181   0.6978     F
C39     0.2312  0.01937   0.3423     C
C40     0.2698  0.03437   0.5796     C
C41     0.1989   0.0522   0.3813     C
H42     0.1645     0.07   0.3259     H
C43     0.2156   0.0598   0.4993     C
H44     0.1897   0.0827   0.5263     H
C45     0.3153     0.06   0.5014     C
H46     0.3612    0.082   0.5284     H
C47     0.2908   0.0524   0.3805     C
H48     0.3149   0.0699   0.3235     H
S49    0.20834  0.00904  0.18967     S
O50     0.2037  0.04228   0.1265     O
O51     0.3645  0.98796   0.1644     O
O52     0.0423  0.98944   0.1721     O
S53    0.28244  0.15154  0.65211     S
F54     0.1682  0.28274   0.9031     F
O55     0.1191  0.14809   0.5762     O
O56      0.298  0.12387   0.7401     O
O57     0.4404  0.15533    0.583     O
C58     0.2593  0.19106   0.7307     C
C59     0.3134  0.22232   0.6817     C
H60     0.3714   0.2224   0.6087     H
C61     0.2824  0.25365   0.7399     C
H62     0.3179   0.2754   0.7075     H
C63     0.1989  0.25231   0.8453     C
C64     0.1441  0.22169   0.8961     C
H65     0.0869   0.2219   0.9694     H
C66     0.1744  0.19047   0.8377     C
H67     0.1375   0.1689   0.8704     H
S68    0.71697  0.33491  0.57229     S
F69     0.7731  0.18442   0.4825     F
O70     0.8735  0.34999   0.5191     O
O71     0.5501  0.34741   0.5154     O
O72     0.7249  0.33921   0.7014     O
C73     0.7254  0.28921   0.5469     C
C74     0.8144   0.2679    0.631     C
H75     0.8643   0.2777   0.7028     H
C76       0.83  0.23231   0.6099     C
H77     0.8901   0.2174   0.6666     H
C78     0.7567   0.2192   0.5056     C
C79     0.6666  0.23965   0.4218     C
H80      0.616   0.2296   0.3506     H
C81      0.651  0.27508   0.4431     C
H82     0.5892   0.2897   0.3864     H
loop_
_geom_bond_atom_site_label_1
_geom_bond_atom_site_label_2
_geom_bond_distance
_geom_bond_site_symmetry_2
_ccdc_geom_bond_type
H4    O57    2.09973       .     S
O57   H4     2.09973       .     S
H7    O55    2.02144       .     S
O55   H7     2.02144       .     S
H12   O56    2.08251       .     S
O56   H12    2.08251       .     S
H14   O57    2.11809       .     S
O57   H14    2.11809       .     S
H15   O55    2.07342   1_655     S
O55   H15    2.07342   1_455     S
H18   O56    2.16253       .     S
O56   H18    2.16253       .     S
H21   O51    2.03207   1_545     S
O51   H21    2.03207   1_565     S
H22   O52    2.02613   1_645     S
O52   H22    2.02613   1_465     S
H24   O50    2.04849       .     S
O50   H24    2.04849       .     S
H27   O50    2.06538   1_655     S
O50   H27    2.06538   1_455     S
N0    H1     0.87996       .     S
H1    N0     0.87996       .     S
N0    H2     0.87958       .     S
H2    N0     0.87958       .     S
N0    C9     1.33115       .     S
C9    N0     1.33115       .     S
N3    H4     0.87985       .     S
H4    N3     0.87985       .     S
N3    H5     0.88003       .     S
H5    N3     0.88003       .     S
N3    C9     1.32377       .     S
C9    N3     1.32377       .     S
N6    H7     0.87990       .     S
H7    N6     0.87990       .     S
N6    H8     0.87960   1_455     S
H8    N6     0.87960   1_655     S
N6    C9     1.32169       .     S
C9    N6     1.32169       .     S
N10   H11    0.88158       .     S
H11   N10    0.88158       .     S
N10   H12    0.87956       .     S
H12   N10    0.87956       .     S
N10   C19    1.31864       .     S
C19   N10    1.31864       .     S
N13   H14    0.88040       .     S
H14   N13    0.88040       .     S
N13   H15    0.87922       .     S
H15   N13    0.87922       .     S
N13   C19    1.33571       .     S
C19   N13    1.33571       .     S
N16   H17    0.87922       .     S
H17   N16    0.87922       .     S
N16   H18    0.88023   1_655     S
H18   N16    0.88023   1_455     S
N16   C19    1.32518       .     S
C19   N16    1.32518       .     S
N20   H21    0.87892       .     S
H21   N20    0.87892       .     S
N20   H22    0.87939       .     S
H22   N20    0.87939       .     S
N20   C29    1.31801       .     S
C29   N20    1.31801       .     S
N23   H24    0.87907       .     S
H24   N23    0.87907       .     S
N23   H25    0.87985       .     S
H25   N23    0.87985       .     S
N23   C29    1.32787       .     S
C29   N23    1.32787       .     S
N26   H27    0.87981       .     S
H27   N26    0.87981       .     S
N26   H28    0.88020       .     S
H28   N26    0.88020       .     S
N26   C29    1.32784       .     S
C29   N26    1.32784       .     S
C30   H31    0.95030       .     S
H31   C30    0.95030       .     S
C30   C32    1.50016       .     S
C32   C30    1.50016       .     S
C30   C34    1.41227       .     S
C34   C30    1.41227       .     S
C30   C36    0.48531   1_565     S
C36   C30    0.48531   1_545     S
C30   H37    1.04561       .     S
H37   C30    1.04561       .     S
C30   C40    1.38247   1_565     S
C40   C30    1.38247   1_545     S
H31   C36    1.19402   1_565     S
C36   H31    1.19402   1_545     S
C32   H33    0.95065       .     S
H33   C32    0.95065       .     S
C32   C34    0.54244       .     S
C34   C32    0.54244       .     S
C32   H35    1.20528       .     S
H35   C32    1.20528       .     S
C32   C36    1.32870   1_565     S
C36   C32    1.32870   1_545     S
C32   C39    1.38790   1_565     S
C39   C32    1.38790   1_545     S
H33   C34    1.18504       .     S
C34   H33    1.18504       .     S
C34   H35    0.95053       .     S
H35   C34    0.95053       .     S
C34   C36    1.42298   1_565     S
C36   C34    1.42298   1_545     S
C34   C39    1.39936   1_565     S
C39   C34    1.39936   1_545     S
C36   H37    0.94544   1_545     S
H37   C36    0.94545   1_565     S
C36   C40    1.37641       .     S
C40   C36    1.37641       .     S
F38   C40    1.36270       .     S
C40   F38    1.36270       .     S
C39   C41    1.35576       .     S
C41   C39    1.35576       .     S
C39   C47    1.39937       .     S
C47   C39    1.39937       .     S
C39   S49    1.76474       .     S
S49   C39    1.76474       .     S
C40   C43    1.37479       .     S
C43   C40    1.37479       .     S
C40   C45    1.37265       .     S
C45   C40    1.37265       .     S
C41   H42    0.94990       .     S
H42   C41    0.94990       .     S
C41   C43    1.36080       .     S
C43   C41    1.36080       .     S
C41   C45    1.59815       .     S
C45   C41    1.59815       .     S
C41   C47    0.68701       .     S
C47   C41    0.68701       .     S
C41   H48    1.30093       .     S
H48   C41    1.30093       .     S
H42   C47    1.28866       .     S
C47   H42    1.28866       .     S
C43   H44    0.95015       .     S
H44   C43    0.95015       .     S
C43   C45    0.74387       .     S
C45   C43    0.74387       .     S
C43   C47    1.50590       .     S
C47   C43    1.50590       .     S
H44   C45    1.31901       .     S
C45   H44    1.31901       .     S
C45   H46    0.95222       .     S
H46   C45    0.95222       .     S
C45   C47    1.39606       .     S
C47   C45    1.39606       .     S
C47   H48    0.95133       .     S
H48   C47    0.95133       .     S
S49   O50    1.45628       .     S
O50   S49    1.45628       .     S
S49   O51    1.45811   1_545     S
O51   S49    1.45811   1_565     S
S49   O52    1.45367   1_545     S
O52   S49    1.45367   1_565     S
S53   O55    1.45896       .     S
O55   S53    1.45896       .     S
S53   O56    1.45063       .     S
O56   S53    1.45063       .     S
S53   O57    1.45478       .     S
O57   S53    1.45478       .     S
S53   C58    1.76458       .     S
C58   S53    1.76458       .     S
F54   C63    1.35879       .     S
C63   F54    1.35879       .     S
C58   C59    1.38571       .     S
C59   C58    1.38571       .     S
C58   C66    1.39198       .     S
C66   C58    1.39198       .     S
C59   H60    0.94984       .     S
H60   C59    0.94984       .     S
C59   C61    1.39096       .     S
C61   C59    1.39096       .     S
C61   H62    0.95150       .     S
H62   C61    0.95150       .     S
C61   C63    1.37146       .     S
C63   C61    1.37146       .     S
C63   C64    1.37498       .     S
C64   C63    1.37498       .     S
C64   H65    0.94991       .     S
H65   C64    0.94991       .     S
C64   C66    1.38743       .     S
C66   C64    1.38743       .     S
C66   H67    0.95005       .     S
H67   C66    0.95005       .     S
S68   O70    1.46028       .     S
O70   S68    1.46028       .     S
S68   O71    1.45235       .     S
O71   S68    1.45235       .     S
S68   O72    1.46271       .     S
O72   S68    1.46271       .     S
S68   C73    1.77219       .     S
C73   S68    1.77219       .     S
F69   C78    1.36175       .     S
C78   F69    1.36175       .     S
C73   C74    1.39223       .     S
C74   C73    1.39223       .     S
C73   C81    1.37894       .     S
C81   C73    1.37894       .     S
C74   H75    0.95010       .     S
H75   C74    0.95010       .     S
C74   C76    1.38730       .     S
C76   C74    1.38730       .     S
C76   H77    0.95124       .     S
H77   C76    0.95124       .     S
C76   C78    1.36590       .     S
C78   C76    1.36590       .     S
C78   C79    1.37470       .     S
C79   C78    1.37470       .     S
C79   H80    0.95015       .     S
H80   C79    0.95015       .     S
C79   C81    1.38170       .     S
C81   C79    1.38170       .     S
C81   H82    0.95029       .     S
H82   C81    0.95029       .     S
O57   H4     2.09973       .     S
H4    O57    2.09973       .     S
O55   H7     2.02144       .     S
H7    O55    2.02144       .     S
O56   H12    2.08251       .     S
H12   O56    2.08251       .     S
O57   H14    2.11809       .     S
H14   O57    2.11809       .     S
O55   H15    2.07342   1_455     S
H15   O55    2.07342   1_655     S
O56   H18    2.16253       .     S
H18   O56    2.16253       .     S
O51   H21    2.03207   1_565     S
H21   O51    2.03207   1_545     S
O52   H22    2.02613   1_465     S
H22   O52    2.02613   1_645     S
O50   H24    2.04849       .     S
H24   O50    2.04849       .     S
O50   H27    2.06538   1_455     S
H27   O50    2.06538   1_655     S
H1    N0     0.87996       .     S
N0    H1     0.87996       .     S
H2    N0     0.87958       .     S
N0    H2     0.87958       .     S
C9    N0     1.33115       .     S
N0    C9     1.33115       .     S
H4    N3     0.87985       .     S
N3    H4     0.87985       .     S
H5    N3     0.88003       .     S
N3    H5     0.88003       .     S
C9    N3     1.32377       .     S
N3    C9     1.32377       .     S
H7    N6     0.87990       .     S
N6    H7     0.87990       .     S
H8    N6     0.87960   1_655     S
N6    H8     0.87960   1_455     S
C9    N6     1.32169       .     S
N6    C9     1.32169       .     S
H11   N10    0.88158       .     S
N10   H11    0.88158       .     S
H12   N10    0.87956       .     S
N10   H12    0.87956       .     S
C19   N10    1.31864       .     S
N10   C19    1.31864       .     S
H14   N13    0.88040       .     S
N13   H14    0.88040       .     S
H15   N13    0.87922       .     S
N13   H15    0.87922       .     S
C19   N13    1.33571       .     S
N13   C19    1.33571       .     S
H17   N16    0.87922       .     S
N16   H17    0.87922       .     S
H18   N16    0.88023   1_455     S
N16   H18    0.88023   1_655     S
C19   N16    1.32518       .     S
N16   C19    1.32518       .     S
H21   N20    0.87892       .     S
N20   H21    0.87892       .     S
H22   N20    0.87939       .     S
N20   H22    0.87939       .     S
C29   N20    1.31801       .     S
N20   C29    1.31801       .     S
H24   N23    0.87907       .     S
N23   H24    0.87907       .     S
H25   N23    0.87985       .     S
N23   H25    0.87985       .     S
C29   N23    1.32787       .     S
N23   C29    1.32787       .     S
H27   N26    0.87981       .     S
N26   H27    0.87981       .     S
H28   N26    0.88020       .     S
N26   H28    0.88020       .     S
C29   N26    1.32784       .     S
N26   C29    1.32784       .     S
H31   C30    0.95030       .     S
C30   H31    0.95030       .     S
C32   C30    1.50016       .     S
C30   C32    1.50016       .     S
C34   C30    1.41227       .     S
C30   C34    1.41227       .     S
C36   C30    0.48531   1_545     S
C30   C36    0.48531   1_565     S
H37   C30    1.04561       .     S
C30   H37    1.04561       .     S
C40   C30    1.38247   1_545     S
C30   C40    1.38247   1_565     S
C36   H31    1.19402   1_545     S
H31   C36    1.19402   1_565     S
H33   C32    0.95065       .     S
C32   H33    0.95065       .     S
C34   C32    0.54244       .     S
C32   C34    0.54244       .     S
H35   C32    1.20528       .     S
C32   H35    1.20528       .     S
C36   C32    1.32870   1_545     S
C32   C36    1.32870   1_565     S
C39   C32    1.38790   1_545     S
C32   C39    1.38790   1_565     S
C34   H33    1.18504       .     S
H33   C34    1.18504       .     S
H35   C34    0.95053       .     S
C34   H35    0.95053       .     S
C36   C34    1.42298   1_545     S
C34   C36    1.42298   1_565     S
C39   C34    1.39936   1_545     S
C34   C39    1.39936   1_565     S
H37   C36    0.94545   1_565     S
C36   H37    0.94544   1_545     S
C40   C36    1.37641       .     S
C36   C40    1.37641       .     S
C40   F38    1.36270       .     S
F38   C40    1.36270       .     S
C41   C39    1.35576       .     S
C39   C41    1.35576       .     S
C47   C39    1.39937       .     S
C39   C47    1.39937       .     S
S49   C39    1.76474       .     S
C39   S49    1.76474       .     S
C43   C40    1.37479       .     S
C40   C43    1.37479       .     S
C45   C40    1.37265       .     S
C40   C45    1.37265       .     S
H42   C41    0.94990       .     S
C41   H42    0.94990       .     S
C43   C41    1.36080       .     S
C41   C43    1.36080       .     S
C45   C41    1.59815       .     S
C41   C45    1.59815       .     S
C47   C41    0.68701       .     S
C41   C47    0.68701       .     S
H48   C41    1.30093       .     S
C41   H48    1.30093       .     S
C47   H42    1.28866       .     S
H42   C47    1.28866       .     S
H44   C43    0.95015       .     S
C43   H44    0.95015       .     S
C45   C43    0.74387       .     S
C43   C45    0.74387       .     S
C47   C43    1.50590       .     S
C43   C47    1.50590       .     S
C45   H44    1.31901       .     S
H44   C45    1.31901       .     S
H46   C45    0.95222       .     S
C45   H46    0.95222       .     S
C47   C45    1.39606       .     S
C45   C47    1.39606       .     S
H48   C47    0.95133       .     S
C47   H48    0.95133       .     S
O50   S49    1.45628       .     S
S49   O50    1.45628       .     S
O51   S49    1.45811   1_565     S
S49   O51    1.45811   1_545     S
O52   S49    1.45367   1_565     S
S49   O52    1.45367   1_545     S
O55   S53    1.45896       .     S
S53   O55    1.45896       .     S
O56   S53    1.45063       .     S
S53   O56    1.45063       .     S
O57   S53    1.45478       .     S
S53   O57    1.45478       .     S
C58   S53    1.76458       .     S
S53   C58    1.76458       .     S
C63   F54    1.35879       .     S
F54   C63    1.35879       .     S
C59   C58    1.38571       .     S
C58   C59    1.38571       .     S
C66   C58    1.39198       .     S
C58   C66    1.39198       .     S
H60   C59    0.94984       .     S
C59   H60    0.94984       .     S
C61   C59    1.39096       .     S
C59   C61    1.39096       .     S
H62   C61    0.95150       .     S
C61   H62    0.95150       .     S
C63   C61    1.37146       .     S
C61   C63    1.37146       .     S
C64   C63    1.37498       .     S
C63   C64    1.37498       .     S
H65   C64    0.94991       .     S
C64   H65    0.94991       .     S
C66   C64    1.38743       .     S
C64   C66    1.38743       .     S
H67   C66    0.95005       .     S
C66   H67    0.95005       .     S
O70   S68    1.46028       .     S
S68   O70    1.46028       .     S
O71   S68    1.45235       .     S
S68   O71    1.45235       .     S
O72   S68    1.46271       .     S
S68   O72    1.46271       .     S
C73   S68    1.77219       .     S
S68   C73    1.77219       .     S
C78   F69    1.36175       .     S
F69   C78    1.36175       .     S
C74   C73    1.39223       .     S
C73   C74    1.39223       .     S
C81   C73    1.37894       .     S
C73   C81    1.37894       .     S
H75   C74    0.95010       .     S
C74   H75    0.95010       .     S
C76   C74    1.38730       .     S
C74   C76    1.38730       .     S
H77   C76    0.95124       .     S
C76   H77    0.95124       .     S
C78   C76    1.36590       .     S
C76   C78    1.36590       .     S
C79   C78    1.37470       .     S
C78   C79    1.37470       .     S
H80   C79    0.95015       .     S
C79   H80    0.95015       .     S
C81   C79    1.38170       .     S
C79   C81    1.38170       .     S
H82   C81    0.95029       .     S
C81   H82    0.95029       .     S
