data_I
_chemical_name_common  '/data/user2/wty/HOF/MOFDiff/mofdiff/data/test/2_g4bbs26'
_cell_length_a 21.06950
_cell_length_b 12.65530
_cell_length_c  7.41410
_cell_angle_alpha 90.00000
_cell_angle_beta  90.00000
_cell_angle_gamma 90.00000
_space_group_name_H-M_alt      'P 1'


loop_
_space_group_symop_operation_xyz
  'x, y, z' 

loop_
_atom_site_label
_atom_site_fract_x
_atom_site_fract_y
_atom_site_fract_z
_atom_site_type_symbol
N0     0.41958   0.4426   0.3805     N
C1     0.47528  0.38765   0.3829     C
N2     0.69349  0.16299   0.4095     N
C3     0.53129  0.42736   0.3026     C
H4      0.5304   0.4941   0.2439     H
C5     0.58705  0.37114    0.308     C
H6      0.6241   0.3999    0.254     H
C7     0.59008  0.27214    0.392     C
C8     0.53491  0.23204   0.4704     C
H9      0.5361   0.1649   0.5276     H
C10    0.47899  0.28722   0.4668     C
H11     0.4422   0.2578   0.5212     H
C12    0.36248  0.39785   0.4614     C
H13     0.3511   0.3325   0.3983     H
H14     0.3276   0.4486   0.4513     H
H15     0.3704   0.3824   0.5889     H
C16    0.41492   0.5451   0.2961     C
H17     0.4467   0.5926   0.3485     H
H18     0.3724   0.5742   0.3163     H
H19     0.4225   0.5381   0.1663     H
C20    0.64795  0.21223      0.4     C
Br21   0.40492    0.903  0.38691    Br
S22    0.70427   0.8155  0.42664     S
O23    0.71831  0.75539   0.2633     O
C24    0.62196  0.84169   0.4211     C
O25    0.71553  0.75541   0.5903     O
C26    0.57969   0.7727   0.5035     C
H27     0.5952   0.7122   0.5654     H
O28    0.73546  0.91811   0.4278     O
C29    0.51516   0.7918   0.4956     C
H30     0.4861   0.7456   0.5537     H
C31    0.49357   0.8786   0.4025     C
C32    0.53466  0.94868   0.3205     C
H33     0.5188   0.0088   0.2584     H
C34    0.59921  0.93021   0.3301     C
H35     0.6281   0.9779   0.2745     H
N36    0.74811  0.53073   0.5827     N
H37     0.7499   0.4955   0.6849     H
H38     0.7403    0.599   0.5835     H
N39    0.75461  0.53403   0.2729     N
H40     0.7607   0.5009     0.17     H
H41     0.7468   0.6023   0.2735     H
N42    0.76902  0.37821    0.427     N
H43     0.7707   0.3432   0.5294     H
H44     0.7751   0.3449   0.3242     H
C45    0.75727  0.48091   0.4274     C
loop_
_geom_bond_atom_site_label_1
_geom_bond_atom_site_label_2
_geom_bond_distance
_geom_bond_site_symmetry_2
_ccdc_geom_bond_type
H38   O25    2.04768       .     S
O25   H38    2.04768       .     S
H41   O23    2.02967       .     S
O23   H41    2.02967       .     S
N0    C1     1.36425       .     S
C1    N0     1.36425       .     S
N0    C12    1.45872       .     S
C12   N0     1.45872       .     S
N0    C16    1.44355       .     S
C16   N0     1.44355       .     S
C1    C3     1.41409       .     S
C3    C1     1.41409       .     S
C1    C10    1.41719       .     S
C10   C1     1.41719       .     S
N2    C20    1.14627       .     S
C20   N2     1.14627       .     S
C3    H4     0.95033       .     S
H4    C3     0.95033       .     S
C3    C5     1.37406       .     S
C5    C3     1.37406       .     S
C5    H6     0.94981       .     S
H6    C5     0.94981       .     S
C5    C7     1.40058       .     S
C7    C5     1.40058       .     S
C7    C8     1.39520       .     S
C8    C7     1.39520       .     S
C7    C20    1.43702       .     S
C20   C7     1.43702       .     S
C8    H9     0.94996       .     S
H9    C8     0.94996       .     S
C8    C10    1.36987       .     S
C10   C8     1.36987       .     S
C10   H11    0.94981       .     S
H11   C10    0.94981       .     S
C12   H13    0.97996       .     S
H13   C12    0.97996       .     S
C12   H14    0.97887       .     S
H14   C12    0.97887       .     S
C12   H15    0.97962       .     S
H15   C12    0.97962       .     S
C16   H17    0.98012       .     S
H17   C16    0.98012       .     S
C16   H18    0.98012       .     S
H18   C16    0.98012       .     S
C16   H19    0.97953       .     S
H19   C16    0.97953       .     S
Br21  C31    1.89669       .     S
C31   Br21   1.89669       .     S
S22   O23    1.46040       .     S
O23   S22    1.46040       .     S
S22   C24    1.76610       .     S
C24   S22    1.76610       .     S
S22   O25    1.45152       .     S
O25   S22    1.45152       .     S
S22   O28    1.45540       .     S
O28   S22    1.45540       .     S
C24   C26    1.38877       .     S
C26   C24    1.38877       .     S
C24   C34    1.39281       .     S
C34   C24    1.39281       .     S
C26   H27    0.95059       .     S
H27   C26    0.95059       .     S
C26   C29    1.38217       .     S
C29   C26    1.38217       .     S
C29   H30    0.94989       .     S
H30   C29    0.94989       .     S
C29   C31    1.37478       .     S
C31   C29    1.37478       .     S
C31   C32    1.38047       .     S
C32   C31    1.38047       .     S
C32   H33    0.95001   1_565     S
H33   C32    0.95001   1_545     S
C32   C34    1.38181       .     S
C34   C32    1.38181       .     S
C34   H35    0.95115       .     S
H35   C34    0.95115       .     S
N36   H37    0.87997       .     S
H37   N36    0.87997       .     S
N36   H38    0.87953       .     S
H38   N36    0.87953       .     S
N36   C45    1.32684       .     S
C45   N36    1.32684       .     S
N39   H40    0.87993       .     S
H40   N39    0.87993       .     S
N39   H41    0.87952       .     S
H41   N39    0.87952       .     S
N39   C45    1.32935       .     S
C45   N39    1.32935       .     S
N42   H43    0.87974       .     S
H43   N42    0.87974       .     S
N42   H44    0.88035       .     S
H44   N42    0.88035       .     S
N42   C45    1.32307       .     S
C45   N42    1.32307       .     S
O25   H38    2.04768       .     S
H38   O25    2.04768       .     S
O23   H41    2.02967       .     S
H41   O23    2.02967       .     S
C1    N0     1.36425       .     S
N0    C1     1.36425       .     S
C12   N0     1.45872       .     S
N0    C12    1.45872       .     S
C16   N0     1.44355       .     S
N0    C16    1.44355       .     S
C3    C1     1.41409       .     S
C1    C3     1.41409       .     S
C10   C1     1.41719       .     S
C1    C10    1.41719       .     S
C20   N2     1.14627       .     S
N2    C20    1.14627       .     S
H4    C3     0.95033       .     S
C3    H4     0.95033       .     S
C5    C3     1.37406       .     S
C3    C5     1.37406       .     S
H6    C5     0.94981       .     S
C5    H6     0.94981       .     S
C7    C5     1.40058       .     S
C5    C7     1.40058       .     S
C8    C7     1.39520       .     S
C7    C8     1.39520       .     S
C20   C7     1.43702       .     S
C7    C20    1.43702       .     S
H9    C8     0.94996       .     S
C8    H9     0.94996       .     S
C10   C8     1.36987       .     S
C8    C10    1.36987       .     S
H11   C10    0.94981       .     S
C10   H11    0.94981       .     S
H13   C12    0.97996       .     S
C12   H13    0.97996       .     S
H14   C12    0.97887       .     S
C12   H14    0.97887       .     S
H15   C12    0.97962       .     S
C12   H15    0.97962       .     S
H17   C16    0.98012       .     S
C16   H17    0.98012       .     S
H18   C16    0.98012       .     S
C16   H18    0.98012       .     S
H19   C16    0.97953       .     S
C16   H19    0.97953       .     S
C31   Br21   1.89669       .     S
Br21  C31    1.89669       .     S
O23   S22    1.46040       .     S
S22   O23    1.46040       .     S
C24   S22    1.76610       .     S
S22   C24    1.76610       .     S
O25   S22    1.45152       .     S
S22   O25    1.45152       .     S
O28   S22    1.45540       .     S
S22   O28    1.45540       .     S
C26   C24    1.38877       .     S
C24   C26    1.38877       .     S
C34   C24    1.39281       .     S
C24   C34    1.39281       .     S
H27   C26    0.95059       .     S
C26   H27    0.95059       .     S
C29   C26    1.38217       .     S
C26   C29    1.38217       .     S
H30   C29    0.94989       .     S
C29   H30    0.94989       .     S
C31   C29    1.37478       .     S
C29   C31    1.37478       .     S
C32   C31    1.38047       .     S
C31   C32    1.38047       .     S
H33   C32    0.95001   1_545     S
C32   H33    0.95001   1_565     S
C34   C32    1.38181       .     S
C32   C34    1.38181       .     S
H35   C34    0.95115       .     S
C34   H35    0.95115       .     S
H37   N36    0.87997       .     S
N36   H37    0.87997       .     S
H38   N36    0.87953       .     S
N36   H38    0.87953       .     S
C45   N36    1.32684       .     S
N36   C45    1.32684       .     S
H40   N39    0.87993       .     S
N39   H40    0.87993       .     S
H41   N39    0.87952       .     S
N39   H41    0.87952       .     S
C45   N39    1.32935       .     S
N39   C45    1.32935       .     S
H43   N42    0.87974       .     S
N42   H43    0.87974       .     S
H44   N42    0.88035       .     S
N42   H44    0.88035       .     S
C45   N42    1.32307       .     S
N42   C45    1.32307       .     S
