data_I
_chemical_name_common  '/data/user2/wty/HOF/MOFDiff/mofdiff/data/test/2_g4as3'
_cell_length_a  7.44090
_cell_length_b 20.36400
_cell_length_c 12.24800
_cell_angle_alpha 90.00000
_cell_angle_beta  93.07500
_cell_angle_gamma 90.00000
_space_group_name_H-M_alt      'P 1'


loop_
_space_group_symop_operation_xyz
  'x, y, z' 

loop_
_atom_site_label
_atom_site_fract_x
_atom_site_fract_y
_atom_site_fract_z
_atom_site_type_symbol
C0      0.5345  0.45609  0.51931     C
C1      0.5968  0.51534  0.47957     C
H2      0.6555   0.5155   0.4126     H
C3      0.5763  0.57373   0.5341     C
H4      0.6203   0.6134   0.5048     H
C5      0.4923  0.57435   0.6304     C
H6      0.4771   0.6146   0.6682     H
C7      0.4295  0.51645   0.6729     C
H8      0.3714   0.5173   0.7401     H
C9      0.4496  0.45668  0.61913     C
C10     0.3784  0.39409   0.6672     C
H11     0.3301   0.4036   0.7384     H
H12     0.4762    0.362   0.6765     H
H13     0.2827   0.3761   0.6179     H
C14     0.5559  0.39432   0.4556     C
H15     0.6189    0.404   0.3893     H
H16     0.4369    0.376   0.4354     H
H17     0.6257   0.3625   0.5003     H
S18    0.93528  0.69559  0.34641     S
O19      0.936  0.71206  0.46213     O
C20      0.962  0.60992   0.3385     C
O21     0.0889  0.72505  0.29412     O
C22     0.0639  0.57678  0.42056     C
H23     0.1148   0.6003   0.4817     H
O24     0.7656  0.71157  0.28699     O
C25       0.09  0.51056  0.41255     C
H26      0.158   0.4882   0.4689     H
O27     0.0548  0.40973  0.32336     O
C28     0.0186  0.47549  0.32333     C
C29       0.92  0.50822  0.24016     C
H30     0.8728   0.4849   0.1778     H
C31     0.8916  0.57528  0.24955     C
H32     0.8226   0.5977   0.1937     H
C33     0.9919  0.37212   0.2313     C
H34       0.86   0.3721   0.2265     H
H35     0.0358   0.3269   0.2393     H
H36     0.0366   0.3914   0.1646     H
N37     0.4395  0.72707  0.40392     N
H38     0.5402   0.7231     0.37     H
H39     0.3353   0.7214   0.3677     H
N40     0.6017  0.74996  0.56381     N
H41     0.6057   0.7589   0.6342     H
H42     0.7022   0.7466   0.5294     H
N43     0.2931  0.74653  0.56115     N
H44     0.2966   0.7555   0.6315     H
H45     0.1889   0.7409   0.5249     H
C46     0.4449  0.74153  0.50972     C
loop_
_geom_bond_atom_site_label_1
_geom_bond_atom_site_label_2
_geom_bond_distance
_geom_bond_site_symmetry_2
_ccdc_geom_bond_type
H38   O24    2.02106       .     S
O24   H38    2.02106       .     S
H39   O21    2.00048       .     S
O21   H39    2.00048       .     S
H42   O19    2.08659       .     S
O19   H42    2.08659       .     S
H45   O19    2.07893   1_455     S
O19   H45    2.07893   1_655     S
C0    C1     1.38990       .     S
C1    C0     1.38990       .     S
C0    C9     1.40600       .     S
C9    C0     1.40600       .     S
C0    C14    1.49327       .     S
C14   C0     1.49327       .     S
C1    H2     0.94975       .     S
H2    C1     0.94975       .     S
C1    C3     1.37627       .     S
C3    C1     1.37627       .     S
C3    H4     0.94931       .     S
H4    C3     0.94931       .     S
C3    C5     1.36422       .     S
C5    C3     1.36422       .     S
C5    H6     0.95110       .     S
H6    C5     0.95110       .     S
C5    C7     1.38045       .     S
C7    C5     1.38045       .     S
C7    H8     0.95016       .     S
H8    C7     0.95016       .     S
C7    C9     1.39575       .     S
C9    C7     1.39575       .     S
C9    C10    1.51174       .     S
C10   C9     1.51174       .     S
C10   H11    0.98019       .     S
H11   C10    0.98019       .     S
C10   H12    0.98015       .     S
H12   C10    0.98015       .     S
C10   H13    0.97968       .     S
H13   C10    0.97968       .     S
C14   H15    0.97922       .     S
H15   C14    0.97922       .     S
C14   H16    0.98028       .     S
H16   C14    0.98028       .     S
C14   H17    0.97922       .     S
H17   C14    0.97922       .     S
S18   O19    1.45621       .     S
O19   S18    1.45621       .     S
S18   C20    1.75914       .     S
C20   S18    1.75914       .     S
S18   O21    1.46807   1_655     S
O21   S18    1.46807   1_455     S
S18   O24    1.45981       .     S
O24   S18    1.45981       .     S
C20   C22    1.39956   1_655     S
C22   C20    1.39956   1_455     S
C20   C31    1.37757       .     S
C31   C20    1.37757       .     S
C22   H23    0.95036       .     S
H23   C22    0.95036       .     S
C22   C25    1.36669       .     S
C25   C22    1.36669       .     S
C25   H26    0.94986       .     S
H26   C25    0.94986       .     S
C25   C28    1.38713       .     S
C28   C25    1.38713       .     S
O27   C28    1.36595       .     S
C28   O27    1.36595       .     S
O27   C33    1.42141   1_455     S
C33   O27    1.42141   1_655     S
C28   C29    1.39284   1_455     S
C29   C28    1.39284   1_655     S
C29   H30    0.95050       .     S
H30   C29    0.95050       .     S
C29   C31    1.38758       .     S
C31   C29    1.38758       .     S
C31   H32    0.94989       .     S
H32   C31    0.94989       .     S
C33   H34    0.98006       .     S
H34   C33    0.98006       .     S
C33   H35    0.98023   1_655     S
H35   C33    0.98023   1_455     S
C33   H36    0.98047   1_655     S
H36   C33    0.98047   1_455     S
N37   H38    0.87976       .     S
H38   N37    0.87976       .     S
N37   H39    0.87999       .     S
H39   N37    0.87999       .     S
N37   C46    1.32738       .     S
C46   N37    1.32738       .     S
N40   H41    0.88009       .     S
H41   N40    0.88009       .     S
N40   H42    0.88053       .     S
H42   N40    0.88053       .     S
N40   C46    1.32163       .     S
C46   N40    1.32163       .     S
N43   H44    0.87981       .     S
H44   N43    0.87981       .     S
N43   H45    0.88005       .     S
H45   N43    0.88005       .     S
N43   C46    1.32640       .     S
C46   N43    1.32640       .     S
O24   H38    2.02106       .     S
H38   O24    2.02106       .     S
O21   H39    2.00048       .     S
H39   O21    2.00048       .     S
O19   H42    2.08659       .     S
H42   O19    2.08659       .     S
O19   H45    2.07893   1_655     S
H45   O19    2.07893   1_455     S
C1    C0     1.38990       .     S
C0    C1     1.38990       .     S
C9    C0     1.40600       .     S
C0    C9     1.40600       .     S
C14   C0     1.49327       .     S
C0    C14    1.49327       .     S
H2    C1     0.94975       .     S
C1    H2     0.94975       .     S
C3    C1     1.37627       .     S
C1    C3     1.37627       .     S
H4    C3     0.94931       .     S
C3    H4     0.94931       .     S
C5    C3     1.36422       .     S
C3    C5     1.36422       .     S
H6    C5     0.95110       .     S
C5    H6     0.95110       .     S
C7    C5     1.38045       .     S
C5    C7     1.38045       .     S
H8    C7     0.95016       .     S
C7    H8     0.95016       .     S
C9    C7     1.39575       .     S
C7    C9     1.39575       .     S
C10   C9     1.51174       .     S
C9    C10    1.51174       .     S
H11   C10    0.98019       .     S
C10   H11    0.98019       .     S
H12   C10    0.98015       .     S
C10   H12    0.98015       .     S
H13   C10    0.97968       .     S
C10   H13    0.97968       .     S
H15   C14    0.97922       .     S
C14   H15    0.97922       .     S
H16   C14    0.98028       .     S
C14   H16    0.98028       .     S
H17   C14    0.97922       .     S
C14   H17    0.97922       .     S
O19   S18    1.45621       .     S
S18   O19    1.45621       .     S
C20   S18    1.75914       .     S
S18   C20    1.75914       .     S
O21   S18    1.46807   1_455     S
S18   O21    1.46807   1_655     S
O24   S18    1.45981       .     S
S18   O24    1.45981       .     S
C22   C20    1.39956   1_455     S
C20   C22    1.39956   1_655     S
C31   C20    1.37757       .     S
C20   C31    1.37757       .     S
H23   C22    0.95036       .     S
C22   H23    0.95036       .     S
C25   C22    1.36669       .     S
C22   C25    1.36669       .     S
H26   C25    0.94986       .     S
C25   H26    0.94986       .     S
C28   C25    1.38713       .     S
C25   C28    1.38713       .     S
C28   O27    1.36595       .     S
O27   C28    1.36595       .     S
C33   O27    1.42141   1_655     S
O27   C33    1.42141   1_455     S
C29   C28    1.39284   1_655     S
C28   C29    1.39284   1_455     S
H30   C29    0.95050       .     S
C29   H30    0.95050       .     S
C31   C29    1.38758       .     S
C29   C31    1.38758       .     S
H32   C31    0.94989       .     S
C31   H32    0.94989       .     S
H34   C33    0.98006       .     S
C33   H34    0.98006       .     S
H35   C33    0.98023   1_455     S
C33   H35    0.98023   1_655     S
H36   C33    0.98047   1_455     S
C33   H36    0.98047   1_655     S
H38   N37    0.87976       .     S
N37   H38    0.87976       .     S
H39   N37    0.87999       .     S
N37   H39    0.87999       .     S
C46   N37    1.32738       .     S
N37   C46    1.32738       .     S
H41   N40    0.88009       .     S
N40   H41    0.88009       .     S
H42   N40    0.88053       .     S
N40   H42    0.88053       .     S
C46   N40    1.32163       .     S
N40   C46    1.32163       .     S
H44   N43    0.87981       .     S
N43   H44    0.87981       .     S
H45   N43    0.88005       .     S
N43   H45    0.88005       .     S
C46   N43    1.32640       .     S
N43   C46    1.32640       .     S
