data_I
_chemical_name_common  '/data/user2/wty/HOF/MOFDiff/mofdiff/data/test/2_g4cbs0513'
_cell_length_a 18.39830
_cell_length_b 22.82370
_cell_length_c  7.71690
_cell_angle_alpha 90.00000
_cell_angle_beta  90.00000
_cell_angle_gamma 90.00000
_space_group_name_H-M_alt      'P 1'


loop_
_space_group_symop_operation_xyz
  'x, y, z' 

loop_
_atom_site_label
_atom_site_fract_x
_atom_site_fract_y
_atom_site_fract_z
_atom_site_type_symbol
S0     0.09874  0.61799   0.4327     S
O1     0.17653  0.62922   0.4328     O
C2     0.08893  0.54074   0.4371     C
Cl3    0.06629  0.34497  0.44383    Cl
O4     0.06367  0.64038   0.5899     O
C5     0.03789  0.51407   0.3339     C
H6      0.0079    0.537   0.2604     H
O7     0.06268  0.63821   0.2757     O
C8     0.03009   0.4534   0.3371     C
H9      0.9948   0.4346   0.2665     H
C10    0.07453  0.42116   0.4445     C
C11    0.12558  0.44735   0.5502     C
H12     0.1551   0.4244    0.625     H
C13    0.13307  0.50767   0.5456     C
H14     0.1683   0.5264   0.6164     H
N15    0.13122  0.63811   0.9333     N
H16     0.1071   0.6408   0.8352     H
H17     0.1077   0.6387   0.0326     H
N18     0.2393  0.63214   0.7833     N
H19     0.2159   0.6348   0.6843     H
H20      0.287   0.6288   0.7841     H
N21    0.23828  0.62835   0.0809     N
H22     0.2141   0.6285   0.1793     H
H23     0.2859    0.625   0.0815     H
C24    0.20287  0.63311   0.9315     C
N25    0.93025  0.82547   0.4333     N
H26       0.92   0.8428   0.3345     H
H27     0.9196   0.8428    0.532     H
N28     0.9778  0.74706   0.2861     N
H29     0.9677   0.7642   0.1869     H
H30     0.9987   0.7124    0.287     H
N31     0.9766  0.74736    0.583     N
H32     0.9973   0.7126   0.5838     H
H33     0.9659   0.7649   0.6813     H
C34    0.96166  0.77336   0.4337     C
Cl35   0.31135  0.54607  0.42462    Cl
S36    0.56101  0.35995  0.43421     S
O37    0.60318  0.37055   0.5913     O
O38    0.52724  0.30252   0.4329     O
O39    0.60334  0.37172   0.2773     O
C40    0.48985   0.4121    0.434     C
C41    0.49468  0.46144   0.5369     C
H42     0.5356   0.4669   0.6101     H
C43     0.4398  0.50303   0.5334     C
H44     0.4432   0.5374   0.6026     H
C45    0.38062  0.49401   0.4291     C
C46     0.3751  0.44488   0.3266     C
H47     0.3337   0.4392   0.2547     H
C48     0.4301  0.40399   0.3291     C
H49     0.4268     0.37   0.2583     H
C50     0.2828  0.36638   0.9078     C
C51     0.2142   0.3637   0.9776     C
H52     0.1928   0.3265   0.9992     H
C53     0.1756   0.4137   0.0168     C
H54     0.1282   0.4112   0.0648     H
C55     0.2073   0.4683   0.9849     C
H56     0.1823   0.5033   0.0143     H
C57     0.2736   0.4705   0.9122     C
H58     0.2944   0.5075   0.8848     H
C59     0.3107   0.4217   0.8778     C
H60     0.3583    0.425   0.8308     H
C61     0.3235   0.3107   0.8614     C
H62     0.3741    0.314   0.9034     H
H63     0.3005   0.2773    0.922     H
C64     0.3245   0.2983   0.6688     C
H65     0.3537   0.3295   0.6133     H
H66     0.3513   0.2611   0.6519     H
C67     0.2614    0.294   0.5792     C
H68     0.2322   0.3294   0.6033     H
H69      0.234     0.26   0.6251     H
C70     0.2675    0.287   0.3816     C
H71     0.2851   0.3236   0.3307     H
H72     0.2197   0.2775   0.3334     H
H73     0.3017   0.2553   0.3548     H
loop_
_geom_bond_atom_site_label_1
_geom_bond_atom_site_label_2
_geom_bond_distance
_geom_bond_site_symmetry_2
_ccdc_geom_bond_type
H16   O4     2.05471       .     S
O4    H16    2.05471       .     S
H17   O7     2.05073       .     S
O7    H17    2.05073       .     S
H19   O1     2.07547       .     S
O1    H19    2.07547       .     S
H22   O1     2.07483       .     S
O1    H22    2.07483       .     S
H30   O7     2.06409   1_655     S
O7    H30    2.06409   1_455     S
H32   O4     2.05189   1_655     S
O4    H32    2.05189   1_455     S
S0    O1     1.45397       .     S
O1    S0     1.45397       .     S
S0    C2     1.77267       .     S
C2    S0     1.77267       .     S
S0    O4     1.46597       .     S
O4    S0     1.46597       .     S
S0    O7     1.45636       .     S
O7    S0     1.45636       .     S
C2    C5     1.37352       .     S
C5    C2     1.37352       .     S
C2    C13    1.38933       .     S
C13   C2     1.38933       .     S
Cl3   C10    1.74554       .     S
C10   Cl3    1.74554       .     S
C5    H6     0.94871       .     S
H6    C5     0.94871       .     S
C5    C8     1.39235       .     S
C8    C5     1.39235       .     S
C8    H9     0.95000   1_455     S
H9    C8     0.95000   1_655     S
C8    C10    1.37726       .     S
C10   C8     1.37726       .     S
C10   C11    1.38014       .     S
C11   C10    1.38014       .     S
C11   H12    0.95002       .     S
H12   C11    0.95002       .     S
C11   C13    1.38406       .     S
C13   C11    1.38406       .     S
C13   H14    0.94941       .     S
H14   C13    0.94941       .     S
N15   H16    0.87965       .     S
H16   N15    0.87965       .     S
N15   H17    0.88013   1_556     S
H17   N15    0.88013   1_554     S
N15   C24    1.32324       .     S
C24   N15    1.32324       .     S
N18   H19    0.87903       .     S
H19   N18    0.87903       .     S
N18   H20    0.88093       .     S
H20   N18    0.88093       .     S
N18   C24    1.32576       .     S
C24   N18    1.32576       .     S
N21   H22    0.88007       .     S
H22   N21    0.88007       .     S
N21   H23    0.87947       .     S
H23   N21    0.87947       .     S
N21   C24    1.32869   1_554     S
C24   N21    1.32869   1_556     S
N25   H26    0.87938       .     S
H26   N25    0.87938       .     S
N25   H27    0.88032       .     S
H27   N25    0.88032       .     S
N25   C34    1.32231       .     S
C34   N25    1.32231       .     S
N28   H29    0.87954       .     S
H29   N28    0.87954       .     S
N28   H30    0.87960       .     S
H30   N28    0.87960       .     S
N28   C34    1.32131       .     S
C34   N28    1.32131       .     S
N31   H32    0.88005       .     S
H32   N31    0.88005       .     S
N31   H33    0.88003       .     S
H33   N31    0.88003       .     S
N31   C34    1.32480       .     S
C34   N31    1.32480       .     S
Cl35  C45    1.74277       .     S
C45   Cl35   1.74277       .     S
S36   O37    1.45946       .     S
O37   S36    1.45946       .     S
S36   O38    1.45060       .     S
O38   S36    1.45060       .     S
S36   O39    1.46454       .     S
O39   S36    1.46454       .     S
S36   C40    1.76940       .     S
C40   S36    1.76940       .     S
C40   C41    1.38079       .     S
C41   C40    1.38079       .     S
C40   C48    1.37768       .     S
C48   C40    1.37768       .     S
C41   H42    0.94943       .     S
H42   C41    0.94943       .     S
C41   C43    1.38610       .     S
C43   C41    1.38610       .     S
C43   H44    0.95102       .     S
H44   C43    0.95102       .     S
C43   C45    1.36957       .     S
C45   C43    1.36957       .     S
C45   C46    1.37599       .     S
C46   C45    1.37599       .     S
C46   H47    0.95123       .     S
H47   C46    0.95123       .     S
C46   C48    1.37670       .     S
C48   C46    1.37670       .     S
C48   H49    0.95080       .     S
H49   C48    0.95080       .     S
C50   C51    1.37362       .     S
C51   C50    1.37362       .     S
C50   C59    1.38248       .     S
C59   C50    1.38248       .     S
C50   C61    1.51787       .     S
C61   C50    1.51787       .     S
C51   H52    0.95062       .     S
H52   C51    0.95062       .     S
C51   C53    1.37774   1_556     S
C53   C51    1.37774   1_554     S
C53   H54    0.94920       .     S
H54   C53    0.94920       .     S
C53   C55    1.39775   1_554     S
C55   C53    1.39775   1_556     S
C55   H56    0.94930   1_556     S
H56   C55    0.94930   1_554     S
C55   C57    1.34357       .     S
C57   C55    1.34357       .     S
C57   H58    0.95095       .     S
H58   C57    0.95095       .     S
C57   C59    1.33301       .     S
C59   C57    1.33301       .     S
C59   H60    0.95088       .     S
H60   C59    0.95088       .     S
C61   H62    0.98863       .     S
H62   C61    0.98863       .     S
C61   H63    0.98938       .     S
H63   C61    0.98938       .     S
C61   C64    1.51309       .     S
C64   C61    1.51309       .     S
C64   H65    0.98951       .     S
H65   C64    0.98951       .     S
C64   H66    0.99046       .     S
H66   C64    0.99046       .     S
C64   C67    1.35480       .     S
C67   C64    1.35480       .     S
C67   H68    0.98793       .     S
H68   C67    0.98793       .     S
C67   H69    0.99085       .     S
H69   C67    0.99085       .     S
C67   C70    1.53731       .     S
C70   C67    1.53731       .     S
C70   H71    0.97823       .     S
H71   C70    0.97823       .     S
C70   H72    0.97917       .     S
H72   C70    0.97917       .     S
C70   H73    0.98090       .     S
H73   C70    0.98090       .     S
O4    H16    2.05471       .     S
H16   O4     2.05471       .     S
O7    H17    2.05073       .     S
H17   O7     2.05073       .     S
O1    H19    2.07547       .     S
H19   O1     2.07547       .     S
O1    H22    2.07483       .     S
H22   O1     2.07483       .     S
O7    H30    2.06409   1_455     S
H30   O7     2.06409   1_655     S
O4    H32    2.05189   1_455     S
H32   O4     2.05189   1_655     S
O1    S0     1.45397       .     S
S0    O1     1.45397       .     S
C2    S0     1.77267       .     S
S0    C2     1.77267       .     S
O4    S0     1.46597       .     S
S0    O4     1.46597       .     S
O7    S0     1.45636       .     S
S0    O7     1.45636       .     S
C5    C2     1.37352       .     S
C2    C5     1.37352       .     S
C13   C2     1.38933       .     S
C2    C13    1.38933       .     S
C10   Cl3    1.74554       .     S
Cl3   C10    1.74554       .     S
H6    C5     0.94871       .     S
C5    H6     0.94871       .     S
C8    C5     1.39235       .     S
C5    C8     1.39235       .     S
H9    C8     0.95000   1_655     S
C8    H9     0.95000   1_455     S
C10   C8     1.37726       .     S
C8    C10    1.37726       .     S
C11   C10    1.38014       .     S
C10   C11    1.38014       .     S
H12   C11    0.95002       .     S
C11   H12    0.95002       .     S
C13   C11    1.38406       .     S
C11   C13    1.38406       .     S
H14   C13    0.94941       .     S
C13   H14    0.94941       .     S
H16   N15    0.87965       .     S
N15   H16    0.87965       .     S
H17   N15    0.88013   1_554     S
N15   H17    0.88013   1_556     S
C24   N15    1.32324       .     S
N15   C24    1.32324       .     S
H19   N18    0.87903       .     S
N18   H19    0.87903       .     S
H20   N18    0.88093       .     S
N18   H20    0.88093       .     S
C24   N18    1.32576       .     S
N18   C24    1.32576       .     S
H22   N21    0.88007       .     S
N21   H22    0.88007       .     S
H23   N21    0.87947       .     S
N21   H23    0.87947       .     S
C24   N21    1.32869   1_556     S
N21   C24    1.32869   1_554     S
H26   N25    0.87938       .     S
N25   H26    0.87938       .     S
H27   N25    0.88032       .     S
N25   H27    0.88032       .     S
C34   N25    1.32231       .     S
N25   C34    1.32231       .     S
H29   N28    0.87954       .     S
N28   H29    0.87954       .     S
H30   N28    0.87960       .     S
N28   H30    0.87960       .     S
C34   N28    1.32131       .     S
N28   C34    1.32131       .     S
H32   N31    0.88005       .     S
N31   H32    0.88005       .     S
H33   N31    0.88003       .     S
N31   H33    0.88003       .     S
C34   N31    1.32480       .     S
N31   C34    1.32480       .     S
C45   Cl35   1.74277       .     S
Cl35  C45    1.74277       .     S
O37   S36    1.45946       .     S
S36   O37    1.45946       .     S
O38   S36    1.45060       .     S
S36   O38    1.45060       .     S
O39   S36    1.46454       .     S
S36   O39    1.46454       .     S
C40   S36    1.76940       .     S
S36   C40    1.76940       .     S
C41   C40    1.38079       .     S
C40   C41    1.38079       .     S
C48   C40    1.37768       .     S
C40   C48    1.37768       .     S
H42   C41    0.94943       .     S
C41   H42    0.94943       .     S
C43   C41    1.38610       .     S
C41   C43    1.38610       .     S
H44   C43    0.95102       .     S
C43   H44    0.95102       .     S
C45   C43    1.36957       .     S
C43   C45    1.36957       .     S
C46   C45    1.37599       .     S
C45   C46    1.37599       .     S
H47   C46    0.95123       .     S
C46   H47    0.95123       .     S
C48   C46    1.37670       .     S
C46   C48    1.37670       .     S
H49   C48    0.95080       .     S
C48   H49    0.95080       .     S
C51   C50    1.37362       .     S
C50   C51    1.37362       .     S
C59   C50    1.38248       .     S
C50   C59    1.38248       .     S
C61   C50    1.51787       .     S
C50   C61    1.51787       .     S
H52   C51    0.95062       .     S
C51   H52    0.95062       .     S
C53   C51    1.37774   1_554     S
C51   C53    1.37774   1_556     S
H54   C53    0.94920       .     S
C53   H54    0.94920       .     S
C55   C53    1.39775   1_556     S
C53   C55    1.39775   1_554     S
H56   C55    0.94930   1_554     S
C55   H56    0.94930   1_556     S
C57   C55    1.34357       .     S
C55   C57    1.34357       .     S
H58   C57    0.95095       .     S
C57   H58    0.95095       .     S
C59   C57    1.33301       .     S
C57   C59    1.33301       .     S
H60   C59    0.95088       .     S
C59   H60    0.95088       .     S
H62   C61    0.98863       .     S
C61   H62    0.98863       .     S
H63   C61    0.98938       .     S
C61   H63    0.98938       .     S
C64   C61    1.51309       .     S
C61   C64    1.51309       .     S
H65   C64    0.98951       .     S
C64   H65    0.98951       .     S
H66   C64    0.99046       .     S
C64   H66    0.99046       .     S
C67   C64    1.35480       .     S
C64   C67    1.35480       .     S
H68   C67    0.98793       .     S
C67   H68    0.98793       .     S
H69   C67    0.99085       .     S
C67   H69    0.99085       .     S
C70   C67    1.53731       .     S
C67   C70    1.53731       .     S
H71   C70    0.97823       .     S
C70   H71    0.97823       .     S
H72   C70    0.97917       .     S
C70   H72    0.97917       .     S
H73   C70    0.98090       .     S
C70   H73    0.98090       .     S
