data_I
_chemical_name_common  '/data/user2/wty/HOF/MOFDiff/mofdiff/data/test/2_g4bbs13'
_cell_length_a 18.52000
_cell_length_b 22.90300
_cell_length_c  7.77070
_cell_angle_alpha 90.00000
_cell_angle_beta  90.00000
_cell_angle_gamma 90.00000
_space_group_name_H-M_alt      'P 1'


loop_
_space_group_symop_operation_xyz
  'x, y, z' 

loop_
_atom_site_label
_atom_site_fract_x
_atom_site_fract_y
_atom_site_fract_z
_atom_site_type_symbol
Br0    0.44204  0.45497  0.49381    Br
S1     0.18453  0.64208  0.49423     S
O2     0.14229  0.63199   0.6503     O
O3     0.14312  0.63038   0.3382     O
O4     0.21853  0.69931    0.489     O
C5     0.25535   0.5903   0.4956     C
C6      0.2522  0.54171   0.6029     C
H7      0.2119   0.5363   0.6771     H
C8      0.3071  0.50162   0.6013     C
H9      0.3048   0.4683    0.674     H
C10    0.36525  0.50948   0.4953     C
C11     0.3688  0.55741   0.3842     C
H12     0.4086   0.5622   0.3085     H
C13     0.3136  0.59734   0.3867     C
H14     0.3154   0.6303   0.3125     H
N15    0.51451  0.36713   0.1546     N
H16     0.5382   0.3668   0.2527     H
H17     0.4671   0.3691   0.1544     H
N18    0.62147  0.36168   0.0094     N
H19     0.6449   0.3613   0.1079     H
H20     0.6455     0.36   0.9118     H
N21    0.51444   0.3663   0.8588     N
H22      0.467    0.369   0.8579     H
H23     0.5384   0.3646   0.7611     H
C24    0.54995  0.36467   0.0082     C
N25     0.2323  0.75015   0.1396     N
H26     0.2545   0.7841   0.1387     H
H27      0.222   0.7331   0.2381     H
N28    0.18121  0.67302   0.9944     N
H29     0.1694   0.6558   0.8972     H
H30      0.171   0.6562   0.0933     H
N31     0.2296   0.7496   0.8443     N
H32     0.2179   0.7324   0.7471     H
H33     0.2516   0.7837   0.8428     H
C34    0.21442  0.72446   0.9919     C
Br35   0.67911  0.66011  0.51577    Br
S36    0.65189  0.38099  0.50865     S
O37      0.688  0.36063   0.3528     O
O38     0.5743  0.36989   0.5079     O
O39    0.68627  0.35888   0.6648     O
C40     0.6619  0.45789   0.5138     C
C41    0.70921  0.48536   0.4031     C
H42     0.7379   0.4629   0.3263     H
C43     0.7149  0.54564   0.4038     C
H44     0.7471   0.5649   0.3274     H
C45    0.67283   0.5774   0.5181     C
C46    0.62623  0.55054   0.6325     C
H47     0.5986   0.5729   0.7117     H
C48    0.62081  0.49035   0.6286     C
H49     0.5887    0.471   0.7052     H
loop_
_geom_bond_atom_site_label_1
_geom_bond_atom_site_label_2
_geom_bond_distance
_geom_bond_site_symmetry_2
_ccdc_geom_bond_type
H16   O38    2.09395       .     S
O38   H16    2.09395       .     S
H19   O37    2.06372       .     S
O37   H19    2.06372       .     S
H20   O39    2.06270       .     S
O39   H20    2.06270       .     S
H23   O38    2.08037       .     S
O38   H23    2.08037       .     S
H27   O4     2.09863       .     S
O4    H27    2.09863       .     S
H29   O2     2.05680       .     S
O2    H29    2.05680       .     S
H30   O3     2.05861       .     S
O3    H30    2.05861       .     S
H32   O4     2.14406       .     S
O4    H32    2.14406       .     S
Br0   C10    1.89242       .     S
C10   Br0    1.89242       .     S
S1    O2     1.46157       .     S
O2    S1     1.46157       .     S
S1    O3     1.45946       .     S
O3    S1     1.45946       .     S
S1    O4     1.45471       .     S
O4    S1     1.45471       .     S
S1    C5     1.76827       .     S
C5    S1     1.76827       .     S
C5    C6     1.39179       .     S
C6    C5     1.39179       .     S
C5    C13    1.38054       .     S
C13   C5     1.38054       .     S
C6    H7     0.95124       .     S
H7    C6     0.95124       .     S
C6    C8     1.37003       .     S
C8    C6     1.37003       .     S
C8    H9     0.95043       .     S
H9    C8     0.95043       .     S
C8    C10    1.36773       .     S
C10   C8     1.36773       .     S
C10   C11    1.39810       .     S
C11   C10    1.39810       .     S
C11   H12    0.94941       .     S
H12   C11    0.94941       .     S
C11   C13    1.37180       .     S
C13   C11    1.37180       .     S
C13   H14    0.95048       .     S
H14   C13    0.95048       .     S
N15   H16    0.87958       .     S
H16   N15    0.87958       .     S
N15   H17    0.87919       .     S
H17   N15    0.87919       .     S
N15   C24    1.31460       .     S
C24   N15    1.31460       .     S
N18   H19    0.87990       .     S
H19   N18    0.87990       .     S
N18   H20    0.88019   1_554     S
H20   N18    0.88019   1_556     S
N18   C24    1.32635       .     S
C24   N18    1.32635       .     S
N21   H22    0.88079       .     S
H22   N21    0.88079       .     S
N21   H23    0.88023       .     S
H23   N21    0.88023       .     S
N21   C24    1.33480   1_556     S
C24   N21    1.33480   1_554     S
N25   H26    0.87959       .     S
H26   N25    0.87959       .     S
N25   H27    0.88019       .     S
H27   N25    0.88019       .     S
N25   C34    1.33159   1_554     S
C34   N25    1.33159   1_556     S
N28   H29    0.87970       .     S
H29   N28    0.87970       .     S
N28   H30    0.88022   1_556     S
H30   N28    0.88022   1_554     S
N28   C34    1.32916       .     S
C34   N28    1.32916       .     S
N31   H32    0.87899       .     S
H32   N31    0.87899       .     S
N31   H33    0.88096       .     S
H33   N31    0.88096       .     S
N31   C34    1.31380       .     S
C34   N31    1.31380       .     S
Br35  C45    1.89796       .     S
C45   Br35   1.89796       .     S
S36   O37    1.45992       .     S
O37   S36    1.45992       .     S
S36   O38    1.45929       .     S
O38   S36    1.45929       .     S
S36   O39    1.46088       .     S
O39   S36    1.46088       .     S
S36   C40    1.77142       .     S
C40   S36    1.77142       .     S
C40   C41    1.37967       .     S
C41   C40    1.37967       .     S
C40   C48    1.38838       .     S
C48   C40    1.38838       .     S
C41   H42    0.95031       .     S
H42   C41    0.95031       .     S
C41   C43    1.38462       .     S
C43   C41    1.38462       .     S
C43   H44    0.95009       .     S
H44   C43    0.95009       .     S
C43   C45    1.38746       .     S
C45   C43    1.38746       .     S
C45   C46    1.38330       .     S
C46   C45    1.38330       .     S
C46   H47    0.95020       .     S
H47   C46    0.95020       .     S
C46   C48    1.38251       .     S
C48   C46    1.38251       .     S
C48   H49    0.95097       .     S
H49   C48    0.95097       .     S
O38   H16    2.09395       .     S
H16   O38    2.09395       .     S
O37   H19    2.06372       .     S
H19   O37    2.06372       .     S
O39   H20    2.06270       .     S
H20   O39    2.06270       .     S
O38   H23    2.08037       .     S
H23   O38    2.08037       .     S
O4    H27    2.09863       .     S
H27   O4     2.09863       .     S
O2    H29    2.05680       .     S
H29   O2     2.05680       .     S
O3    H30    2.05861       .     S
H30   O3     2.05861       .     S
O4    H32    2.14406       .     S
H32   O4     2.14406       .     S
C10   Br0    1.89242       .     S
Br0   C10    1.89242       .     S
O2    S1     1.46157       .     S
S1    O2     1.46157       .     S
O3    S1     1.45946       .     S
S1    O3     1.45946       .     S
O4    S1     1.45471       .     S
S1    O4     1.45471       .     S
C5    S1     1.76827       .     S
S1    C5     1.76827       .     S
C6    C5     1.39179       .     S
C5    C6     1.39179       .     S
C13   C5     1.38054       .     S
C5    C13    1.38054       .     S
H7    C6     0.95124       .     S
C6    H7     0.95124       .     S
C8    C6     1.37003       .     S
C6    C8     1.37003       .     S
H9    C8     0.95043       .     S
C8    H9     0.95043       .     S
C10   C8     1.36773       .     S
C8    C10    1.36773       .     S
C11   C10    1.39810       .     S
C10   C11    1.39810       .     S
H12   C11    0.94941       .     S
C11   H12    0.94941       .     S
C13   C11    1.37180       .     S
C11   C13    1.37180       .     S
H14   C13    0.95048       .     S
C13   H14    0.95048       .     S
H16   N15    0.87958       .     S
N15   H16    0.87958       .     S
H17   N15    0.87919       .     S
N15   H17    0.87919       .     S
C24   N15    1.31460       .     S
N15   C24    1.31460       .     S
H19   N18    0.87990       .     S
N18   H19    0.87990       .     S
H20   N18    0.88019   1_556     S
N18   H20    0.88019   1_554     S
C24   N18    1.32635       .     S
N18   C24    1.32635       .     S
H22   N21    0.88079       .     S
N21   H22    0.88079       .     S
H23   N21    0.88023       .     S
N21   H23    0.88023       .     S
C24   N21    1.33480   1_554     S
N21   C24    1.33480   1_556     S
H26   N25    0.87959       .     S
N25   H26    0.87959       .     S
H27   N25    0.88019       .     S
N25   H27    0.88019       .     S
C34   N25    1.33159   1_556     S
N25   C34    1.33159   1_554     S
H29   N28    0.87970       .     S
N28   H29    0.87970       .     S
H30   N28    0.88022   1_554     S
N28   H30    0.88022   1_556     S
C34   N28    1.32916       .     S
N28   C34    1.32916       .     S
H32   N31    0.87899       .     S
N31   H32    0.87899       .     S
H33   N31    0.88096       .     S
N31   H33    0.88096       .     S
C34   N31    1.31380       .     S
N31   C34    1.31380       .     S
C45   Br35   1.89796       .     S
Br35  C45    1.89796       .     S
O37   S36    1.45992       .     S
S36   O37    1.45992       .     S
O38   S36    1.45929       .     S
S36   O38    1.45929       .     S
O39   S36    1.46088       .     S
S36   O39    1.46088       .     S
C40   S36    1.77142       .     S
S36   C40    1.77142       .     S
C41   C40    1.37967       .     S
C40   C41    1.37967       .     S
C48   C40    1.38838       .     S
C40   C48    1.38838       .     S
H42   C41    0.95031       .     S
C41   H42    0.95031       .     S
C43   C41    1.38462       .     S
C41   C43    1.38462       .     S
H44   C43    0.95009       .     S
C43   H44    0.95009       .     S
C45   C43    1.38746       .     S
C43   C45    1.38746       .     S
C46   C45    1.38330       .     S
C45   C46    1.38330       .     S
H47   C46    0.95020       .     S
C46   H47    0.95020       .     S
C48   C46    1.38251       .     S
C46   C48    1.38251       .     S
H49   C48    0.95097       .     S
C48   H49    0.95097       .     S
