data_I
_chemical_name_common  '/data/user2/wty/HOF/MOFDiff/mofdiff/data/test/2_g4mbs22'
_cell_length_a  7.46220
_cell_length_b 11.87030
_cell_length_c 22.10660
_cell_angle_alpha 90.00000
_cell_angle_beta  90.00000
_cell_angle_gamma 90.00000
_space_group_name_H-M_alt      'P 1'


loop_
_space_group_symop_operation_xyz
  'x, y, z' 

loop_
_atom_site_label
_atom_site_fract_x
_atom_site_fract_y
_atom_site_fract_z
_atom_site_type_symbol
O0      0.2277  0.02291  0.89868     O
C1      0.2339   0.0817  0.06082     C
C2      0.2544  0.03044  0.00433     C
H3      0.3094   0.9584    0.002     H
C4      0.1136   0.1845  0.95397     C
H5      0.0719   0.2201   0.9181     H
C6      0.0917   0.2347  0.00946     C
H7      0.0337   0.3059    0.011     H
C8      0.1496  0.18731  0.06333     C
C9      0.1759   0.0753  0.84362     C
H10     0.0463   0.0886   0.8439     H
H11     0.2067   0.0261   0.8096     H
H12      0.239   0.1473   0.8394     H
C13     0.1963   0.0825  0.95159     C
C14      0.302   0.0243    0.117     C
H15     0.3453   0.9487   0.1067     H
H16     0.2046   0.0182   0.1466     H
H17     0.4004   0.0684   0.1343     H
C18     0.1234   0.2488  0.12216     C
H19     0.0637   0.3209   0.1145     H
H20     0.2402   0.2625   0.1411     H
H21     0.0492    0.203   0.1493     H
S22    0.25419  0.66965  0.80833     S
O23     0.2564  0.79058  0.79667     O
O24     0.0954  0.61566  0.78248     O
O25    0.41822  0.61306   0.7888     O
C26     0.2404  0.65147  0.88721     C
C27     0.1654  0.73465   0.9233     C
H28     0.1275    0.804    0.906     H
C29     0.1462   0.7156  0.98492     C
H30     0.0948   0.7726   0.0096     H
C31     0.2744  0.53319  0.97419     C
H32     0.3122   0.4639   0.9915     H
C33     0.2007   0.6149  0.01124     C
C34     0.1802   0.5953  0.07853     C
H35     0.1558   0.6671   0.0988     H
H36     0.2911   0.5628   0.0947     H
H37     0.0806   0.5432   0.0857     H
C38     0.2947  0.54977  0.91269     C
H39     0.3451   0.4924   0.8881     H
C40     0.7544  0.83364  0.76821     C
N41     0.6015  0.88739  0.76073     N
H42     0.4996   0.8535   0.7691     H
H43     0.6013   0.9572   0.7474     H
N44     0.7557  0.72841  0.78835     N
H45     0.6541   0.6942   0.7968     H
H46     0.8581   0.6928   0.7933     H
N47     0.9084   0.8838  0.75515     N
H48     0.9089   0.9534   0.7414     H
H49     0.0101   0.8475   0.7602     H
loop_
_geom_bond_atom_site_label_1
_geom_bond_atom_site_label_2
_geom_bond_distance
_geom_bond_site_symmetry_2
_ccdc_geom_bond_type
H42   O23    2.05495       .     S
O23   H42    2.05495       .     S
H45   O25    2.01425       .     S
O25   H45    2.01425       .     S
H46   O24    2.00782   1_655     S
O24   H46    2.00782   1_455     S
H49   O23    2.11767       .     S
O23   H49    2.11767       .     S
O0    C9     1.42046       .     S
C9    O0     1.42046       .     S
O0    C13    1.38685       .     S
C13   O0     1.38685       .     S
C1    C2     1.39755       .     S
C2    C1     1.39755       .     S
C1    C8     1.40370       .     S
C8    C1     1.40370       .     S
C1    C14    1.50497       .     S
C14   C1     1.50497       .     S
C2    H3     0.94992   1_545     S
H3    C2     0.94992   1_565     S
C2    C13    1.38895   1_554     S
C13   C2     1.38895   1_556     S
C4    H5     0.95089       .     S
H5    C4     0.95089       .     S
C4    C6     1.37352   1_556     S
C6    C4     1.37353   1_554     S
C4    C13    1.35999       .     S
C13   C4     1.35999       .     S
C6    H7     0.95015       .     S
H7    C6     0.95015       .     S
C6    C8     1.38612       .     S
C8    C6     1.38612       .     S
C8    C18    1.50412       .     S
C18   C8     1.50412       .     S
C9    H10    0.97992       .     S
H10   C9     0.97992       .     S
C9    H11    0.97954       .     S
H11   C9     0.97954       .     S
C9    H12    0.98024       .     S
H12   C9     0.98024       .     S
C14   H15    0.98059   1_545     S
H15   C14    0.98059   1_565     S
C14   H16    0.98066       .     S
H16   C14    0.98066       .     S
C14   H17    0.97952       .     S
H17   C14    0.97952       .     S
C18   H19    0.97960       .     S
H19   C18    0.97960       .     S
C18   H20    0.98052       .     S
H20   C18    0.98052       .     S
C18   H21    0.98087       .     S
H21   C18    0.98087       .     S
S22   O23    1.45853       .     S
O23   S22    1.45853       .     S
S22   O24    1.46333       .     S
O24   S22    1.46333       .     S
S22   O25    1.46146       .     S
O25   S22    1.46146       .     S
S22   C26    1.76008       .     S
C26   S22    1.76008       .     S
C26   C27    1.38732       .     S
C27   C26    1.38732       .     S
C26   C38    1.39242       .     S
C38   C26    1.39242       .     S
C27   H28    0.95074       .     S
H28   C27    0.95074       .     S
C27   C29    1.38826       .     S
C29   C27    1.38826       .     S
C29   H30    0.95004   1_556     S
H30   C29    0.95004   1_554     S
C29   C33    1.39024   1_556     S
C33   C29    1.39024   1_554     S
C31   H32    0.95000       .     S
H32   C31    0.95000       .     S
C31   C33    1.38349   1_556     S
C33   C31    1.38349   1_554     S
C31   C38    1.38205       .     S
C38   C31    1.38205       .     S
C33   C34    1.51339       .     S
C34   C33    1.51339       .     S
C34   H35    0.97997       .     S
H35   C34    0.97997       .     S
C34   H36    0.98054       .     S
H36   C34    0.98054       .     S
C34   H37    0.97979       .     S
H37   C34    0.97979       .     S
C38   H39    0.94906       .     S
H39   C38    0.94906       .     S
C40   N41    1.31766       .     S
N41   C40    1.31766       .     S
C40   N44    1.32612       .     S
N44   C40    1.32612       .     S
C40   N47    1.32608       .     S
N47   C40    1.32608       .     S
N41   H42    0.87993       .     S
H42   N41    0.87993       .     S
N41   H43    0.87950       .     S
H43   N41    0.87950       .     S
N44   H45    0.88012       .     S
H45   N44    0.88012       .     S
N44   H46    0.88008       .     S
H46   N44    0.88008       .     S
N47   H48    0.88032       .     S
H48   N47    0.88032       .     S
N47   H49    0.87981   1_655     S
H49   N47    0.87981   1_455     S
O23   H42    2.05495       .     S
H42   O23    2.05495       .     S
O25   H45    2.01425       .     S
H45   O25    2.01425       .     S
O24   H46    2.00782   1_455     S
H46   O24    2.00782   1_655     S
O23   H49    2.11767       .     S
H49   O23    2.11767       .     S
C9    O0     1.42046       .     S
O0    C9     1.42046       .     S
C13   O0     1.38685       .     S
O0    C13    1.38685       .     S
C2    C1     1.39755       .     S
C1    C2     1.39755       .     S
C8    C1     1.40370       .     S
C1    C8     1.40370       .     S
C14   C1     1.50497       .     S
C1    C14    1.50497       .     S
H3    C2     0.94992   1_565     S
C2    H3     0.94992   1_545     S
C13   C2     1.38895   1_556     S
C2    C13    1.38895   1_554     S
H5    C4     0.95089       .     S
C4    H5     0.95089       .     S
C6    C4     1.37353   1_554     S
C4    C6     1.37352   1_556     S
C13   C4     1.35999       .     S
C4    C13    1.35999       .     S
H7    C6     0.95015       .     S
C6    H7     0.95015       .     S
C8    C6     1.38612       .     S
C6    C8     1.38612       .     S
C18   C8     1.50412       .     S
C8    C18    1.50412       .     S
H10   C9     0.97992       .     S
C9    H10    0.97992       .     S
H11   C9     0.97954       .     S
C9    H11    0.97954       .     S
H12   C9     0.98024       .     S
C9    H12    0.98024       .     S
H15   C14    0.98059   1_565     S
C14   H15    0.98059   1_545     S
H16   C14    0.98066       .     S
C14   H16    0.98066       .     S
H17   C14    0.97952       .     S
C14   H17    0.97952       .     S
H19   C18    0.97960       .     S
C18   H19    0.97960       .     S
H20   C18    0.98052       .     S
C18   H20    0.98052       .     S
H21   C18    0.98087       .     S
C18   H21    0.98087       .     S
O23   S22    1.45853       .     S
S22   O23    1.45853       .     S
O24   S22    1.46333       .     S
S22   O24    1.46333       .     S
O25   S22    1.46146       .     S
S22   O25    1.46146       .     S
C26   S22    1.76008       .     S
S22   C26    1.76008       .     S
C27   C26    1.38732       .     S
C26   C27    1.38732       .     S
C38   C26    1.39242       .     S
C26   C38    1.39242       .     S
H28   C27    0.95074       .     S
C27   H28    0.95074       .     S
C29   C27    1.38826       .     S
C27   C29    1.38826       .     S
H30   C29    0.95004   1_554     S
C29   H30    0.95004   1_556     S
C33   C29    1.39024   1_554     S
C29   C33    1.39024   1_556     S
H32   C31    0.95000       .     S
C31   H32    0.95000       .     S
C33   C31    1.38349   1_554     S
C31   C33    1.38349   1_556     S
C38   C31    1.38205       .     S
C31   C38    1.38205       .     S
C34   C33    1.51339       .     S
C33   C34    1.51339       .     S
H35   C34    0.97997       .     S
C34   H35    0.97997       .     S
H36   C34    0.98054       .     S
C34   H36    0.98054       .     S
H37   C34    0.97979       .     S
C34   H37    0.97979       .     S
H39   C38    0.94906       .     S
C38   H39    0.94906       .     S
N41   C40    1.31766       .     S
C40   N41    1.31766       .     S
N44   C40    1.32612       .     S
C40   N44    1.32612       .     S
N47   C40    1.32608       .     S
C40   N47    1.32608       .     S
H42   N41    0.87993       .     S
N41   H42    0.87993       .     S
H43   N41    0.87950       .     S
N41   H43    0.87950       .     S
H45   N44    0.88012       .     S
N44   H45    0.88012       .     S
H46   N44    0.88008       .     S
N44   H46    0.88008       .     S
H48   N47    0.88032       .     S
N47   H48    0.88032       .     S
H49   N47    0.87981   1_455     S
N47   H49    0.87981   1_655     S
