data_I
_chemical_name_common  '/data/user2/wty/HOF/MOFDiff/mofdiff/data/test/2_g4fbs20'
_cell_length_a  7.53320
_cell_length_b 11.94120
_cell_length_c 20.20600
_cell_angle_alpha 90.00000
_cell_angle_beta  90.00000
_cell_angle_gamma 90.00000
_space_group_name_H-M_alt      'P 1'


loop_
_space_group_symop_operation_xyz
  'x, y, z' 

loop_
_atom_site_label
_atom_site_fract_x
_atom_site_fract_y
_atom_site_fract_z
_atom_site_type_symbol
N0      0.6973  0.65557  0.57766     N
C1      0.6978   0.6279  0.51141     C
C2      0.7835  0.53033  0.48864     C
H3      0.8457   0.4841   0.5191     H
C4      0.7782  0.50108  0.42248     C
H5      0.8367   0.4349   0.4082     H
C6      0.6899  0.56602  0.37692     C
H7      0.6855   0.5446   0.3317     H
C8      0.6082  0.66232  0.39797     C
H9      0.5483   0.7081   0.3667     H
C10     0.6112  0.69435  0.46401     C
H11     0.5542   0.7617   0.4772     H
C12     0.6169  0.75813  0.60007     C
H13     0.6674   0.8214   0.5756     H
H14       0.64   0.7679   0.6475     H
H15     0.4885    0.755   0.5925     H
C16     0.7864  0.58509  0.62524     C
H17     0.7385   0.5089   0.6225     H
H18     0.7672   0.6148   0.6699     H
H19     0.9138   0.5837   0.6156     H
S20    0.26279  0.64479  0.18834     S
F21    0.29529  0.60977   0.9002     F
O22    0.10118  0.58734  0.20911     O
C23    0.26975  0.63521  0.10124     C
O24    0.42245  0.58889  0.21275     O
C25     0.1839  0.54752  0.06922     C
H26     0.1197   0.4934    0.094     H
O27    0.26116  0.76354  0.20431     O
C28     0.1927  0.53954  0.00082     C
H29     0.1342   0.4805    0.978     H
C30     0.2873  0.61851  0.96697     C
C31     0.3733   0.7055  0.99692     C
H32     0.4377   0.7587   0.9715     H
C33     0.3645  0.71457  0.06528     C
H34     0.4227   0.7745   0.0873     H
N35    0.60846  0.85736  0.24327     N
H36     0.6069   0.9272   0.2572     H
H37     0.5081   0.8217   0.2361     H
N38    0.76287   0.7001  0.21306     N
H39     0.6622   0.6644   0.2065     H
H40     0.8645   0.6656   0.2063     H
N41    0.91328  0.85931  0.24399     N
H42     0.9125   0.9291   0.2579     H
H43     0.0148   0.8247   0.2372     H
C44     0.7614  0.80615  0.23324     C
loop_
_geom_bond_atom_site_label_1
_geom_bond_atom_site_label_2
_geom_bond_distance
_geom_bond_site_symmetry_2
_ccdc_geom_bond_type
H37   O27    2.08698       .     S
O27   H37    2.08698       .     S
H39   O24    2.02260       .     S
O24   H39    2.02260       .     S
H40   O22    2.01382   1_655     S
O22   H40    2.01382   1_455     S
H43   O27    2.10222       .     S
O27   H43    2.10222       .     S
N0    C1     1.37883       .     S
C1    N0     1.37883       .     S
N0    C12    1.43936       .     S
C12   N0     1.43936       .     S
N0    C16    1.44331       .     S
C16   N0     1.44331       .     S
C1    C2     1.40923       .     S
C2    C1     1.40923       .     S
C1    C10    1.40447       .     S
C10   C1     1.40447       .     S
C2    H3     0.95032       .     S
H3    C2     0.95032       .     S
C2    C4     1.38228       .     S
C4    C2     1.38228       .     S
C4    H5     0.94973       .     S
H5    C4     0.94973       .     S
C4    C6     1.37524       .     S
C6    C4     1.37524       .     S
C6    H7     0.94942       .     S
H7    C6     0.94942       .     S
C6    C8     1.37188       .     S
C8    C6     1.37188       .     S
C8    H9     0.94957       .     S
H9    C8     0.94957       .     S
C8    C10    1.38832       .     S
C10   C8     1.38832       .     S
C10   H11    0.94985       .     S
H11   C10    0.94985       .     S
C12   H13    0.97980       .     S
H13   C12    0.97980       .     S
C12   H14    0.98100       .     S
H14   C12    0.98100       .     S
C12   H15    0.98000       .     S
H15   C12    0.98000       .     S
C16   H17    0.98031       .     S
H17   C16    0.98031       .     S
C16   H18    0.98036       .     S
H18   C16    0.98036       .     S
C16   H19    0.97944       .     S
H19   C16    0.97944       .     S
S20   O22    1.45908       .     S
O22   S20    1.45908       .     S
S20   C23    1.76444       .     S
C23   S20    1.76444       .     S
S20   O24    1.46132       .     S
O24   S20    1.46132       .     S
S20   O27    1.45432       .     S
O27   S20    1.45432       .     S
F21   C30    1.35452       .     S
C30   F21    1.35452       .     S
C23   C25    1.39044       .     S
C25   C23    1.39044       .     S
C23   C33    1.39121       .     S
C33   C23    1.39121       .     S
C25   H26    0.94987       .     S
H26   C25    0.94987       .     S
C25   C28    1.38696       .     S
C28   C25    1.38696       .     S
C28   H29    0.95072   1_554     S
H29   C28    0.95072   1_556     S
C28   C30    1.36562   1_554     S
C30   C28    1.36562   1_556     S
C30   C31    1.36564       .     S
C31   C30    1.36564       .     S
C31   H32    0.95013       .     S
H32   C31    0.95013       .     S
C31   C33    1.38711   1_556     S
C33   C31    1.38711   1_554     S
C33   H34    0.94991       .     S
H34   C33    0.94991       .     S
N35   H36    0.88027       .     S
H36   N35    0.88027       .     S
N35   H37    0.87972       .     S
H37   N35    0.87972       .     S
N35   C44    1.32001       .     S
C44   N35    1.32001       .     S
N38   H39    0.88001       .     S
H39   N38    0.88001       .     S
N38   H40    0.88007       .     S
H40   N38    0.88007       .     S
N38   C44    1.33044       .     S
C44   N38    1.33044       .     S
N41   H42    0.87952       .     S
H42   N41    0.87952       .     S
N41   H43    0.88006   1_655     S
H43   N41    0.88006   1_455     S
N41   C44    1.32635       .     S
C44   N41    1.32635       .     S
O27   H37    2.08698       .     S
H37   O27    2.08698       .     S
O24   H39    2.02260       .     S
H39   O24    2.02260       .     S
O22   H40    2.01382   1_455     S
H40   O22    2.01382   1_655     S
O27   H43    2.10222       .     S
H43   O27    2.10222       .     S
C1    N0     1.37883       .     S
N0    C1     1.37883       .     S
C12   N0     1.43936       .     S
N0    C12    1.43936       .     S
C16   N0     1.44331       .     S
N0    C16    1.44331       .     S
C2    C1     1.40923       .     S
C1    C2     1.40923       .     S
C10   C1     1.40447       .     S
C1    C10    1.40447       .     S
H3    C2     0.95032       .     S
C2    H3     0.95032       .     S
C4    C2     1.38228       .     S
C2    C4     1.38228       .     S
H5    C4     0.94973       .     S
C4    H5     0.94973       .     S
C6    C4     1.37524       .     S
C4    C6     1.37524       .     S
H7    C6     0.94942       .     S
C6    H7     0.94942       .     S
C8    C6     1.37188       .     S
C6    C8     1.37188       .     S
H9    C8     0.94957       .     S
C8    H9     0.94957       .     S
C10   C8     1.38832       .     S
C8    C10    1.38832       .     S
H11   C10    0.94985       .     S
C10   H11    0.94985       .     S
H13   C12    0.97980       .     S
C12   H13    0.97980       .     S
H14   C12    0.98100       .     S
C12   H14    0.98100       .     S
H15   C12    0.98000       .     S
C12   H15    0.98000       .     S
H17   C16    0.98031       .     S
C16   H17    0.98031       .     S
H18   C16    0.98036       .     S
C16   H18    0.98036       .     S
H19   C16    0.97944       .     S
C16   H19    0.97944       .     S
O22   S20    1.45908       .     S
S20   O22    1.45908       .     S
C23   S20    1.76444       .     S
S20   C23    1.76444       .     S
O24   S20    1.46132       .     S
S20   O24    1.46132       .     S
O27   S20    1.45432       .     S
S20   O27    1.45432       .     S
C30   F21    1.35452       .     S
F21   C30    1.35452       .     S
C25   C23    1.39044       .     S
C23   C25    1.39044       .     S
C33   C23    1.39121       .     S
C23   C33    1.39121       .     S
H26   C25    0.94987       .     S
C25   H26    0.94987       .     S
C28   C25    1.38696       .     S
C25   C28    1.38696       .     S
H29   C28    0.95072   1_556     S
C28   H29    0.95072   1_554     S
C30   C28    1.36562   1_556     S
C28   C30    1.36562   1_554     S
C31   C30    1.36564       .     S
C30   C31    1.36564       .     S
H32   C31    0.95013       .     S
C31   H32    0.95013       .     S
C33   C31    1.38711   1_554     S
C31   C33    1.38711   1_556     S
H34   C33    0.94991       .     S
C33   H34    0.94991       .     S
H36   N35    0.88027       .     S
N35   H36    0.88027       .     S
H37   N35    0.87972       .     S
N35   H37    0.87972       .     S
C44   N35    1.32001       .     S
N35   C44    1.32001       .     S
H39   N38    0.88001       .     S
N38   H39    0.88001       .     S
H40   N38    0.88007       .     S
N38   H40    0.88007       .     S
C44   N38    1.33044       .     S
N38   C44    1.33044       .     S
H42   N41    0.87952       .     S
N41   H42    0.87952       .     S
H43   N41    0.88006   1_455     S
N41   H43    0.88006   1_655     S
C44   N41    1.32635       .     S
N41   C44    1.32635       .     S
