data_I
_chemical_name_common  '/data/user2/wty/HOF/MOFDiff/mofdiff/data/test/2_g4bbs21'
_cell_length_a  7.74310
_cell_length_b 11.24710
_cell_length_c 19.80760
_cell_angle_alpha 90.00000
_cell_angle_beta  90.00000
_cell_angle_gamma 90.00000
_space_group_name_H-M_alt      'P 1'


loop_
_space_group_symop_operation_xyz
  'x, y, z' 

loop_
_atom_site_label
_atom_site_fract_x
_atom_site_fract_y
_atom_site_fract_z
_atom_site_type_symbol
O0      0.2753   0.1947  0.86832     O
C1       0.279   0.1656  0.93545     C
C2      0.3543   0.2347   0.9853     C
H3      0.4114   0.3066   0.9738     H
C4      0.3461   0.1984  0.05188     C
H5      0.3967   0.2461   0.0862     H
C6      0.2656   0.0943  0.06881     C
H7      0.2604   0.0699   0.1147     H
C8      0.1919   0.0246    0.019     C
H9      0.1365   0.9522    0.031     H
C10     0.1977   0.0591  0.95184     C
H11     0.1473    0.011   0.9177     H
C12     0.3792   0.2941   0.8478     C
H13     0.3418   0.3655   0.8721     H
H14     0.3661   0.3067   0.7991     H
H15     0.5007   0.2778   0.8582     H
Br16    0.7459  0.97545   0.8634    Br
S17    0.75665  0.79586  0.17123     S
O18     0.5992   0.7254  0.18072     O
C19     0.7561   0.8423  0.08587     C
O20     0.9133   0.7261  0.18058     O
C21     0.8448   0.7796  0.03646     C
H22     0.9079   0.7103   0.0483     H
O23     0.7546  0.90458  0.21132     O
C24     0.8417   0.8174  0.97013     C
H25      0.903   0.7747   0.9364     H
C26     0.7483   0.9183  0.95338     C
C27     0.6558   0.9805  0.00177     C
H28     0.5905   0.0486   0.9895     H
C29     0.6597   0.9424  0.06807     C
H30     0.5966   0.9843   0.1016     H
N31     0.5957   0.4938  0.25059     N
H32     0.4968   0.4605   0.2615     H
H33     0.5969   0.5615   0.2283     H
N34     0.8931   0.4948  0.25366     N
H35     0.8944   0.5639   0.2329     H
H36     0.9908   0.4604   0.2651     H
N37     0.7419  0.34004  0.30153     N
H38     0.6431   0.3065   0.3125     H
H39     0.8399    0.306   0.3129     H
C40     0.7429   0.4422  0.26779     C
loop_
_geom_bond_atom_site_label_1
_geom_bond_atom_site_label_2
_geom_bond_distance
_geom_bond_site_symmetry_2
_ccdc_geom_bond_type
H33   O18    2.07042       .     S
O18   H33    2.07042       .     S
H35   O20    2.10319       .     S
O20   H35    2.10319       .     S
O0    C1     1.36967       .     S
C1    O0     1.36967       .     S
O0    C12    1.43606       .     S
C12   O0     1.43606       .     S
C1    C2     1.38525       .     S
C2    C1     1.38525       .     S
C1    C10    1.39156       .     S
C10   C1     1.39156       .     S
C2    H3     0.94937       .     S
H3    C2     0.94937       .     S
C2    C4     1.38200   1_556     S
C4    C2     1.38200   1_554     S
C4    H5     0.95050       .     S
H5    C4     0.95050       .     S
C4    C6     1.36814       .     S
C6    C4     1.36814       .     S
C6    H7     0.95035       .     S
H7    C6     0.95035       .     S
C6    C8     1.38333       .     S
C8    C6     1.38333       .     S
C8    H9     0.95057   1_545     S
H9    C8     0.95057   1_565     S
C8    C10    1.38644   1_554     S
C10   C8     1.38644   1_556     S
C10   H11    0.94987       .     S
H11   C10    0.94987       .     S
C12   H13    0.98001       .     S
H13   C12    0.98001       .     S
C12   H14    0.98025       .     S
H14   C12    0.98025       .     S
C12   H15    0.98037       .     S
H15   C12    0.98037       .     S
Br16  C26    1.89474       .     S
C26   Br16   1.89474       .     S
S17   O18    1.46618       .     S
O18   S17    1.46618       .     S
S17   C19    1.76962       .     S
C19   S17    1.76962       .     S
S17   O20    1.45642       .     S
O20   S17    1.45642       .     S
S17   O23    1.45809       .     S
O23   S17    1.45809       .     S
C19   C21    1.38811       .     S
C21   C19    1.38811       .     S
C19   C29    1.39606       .     S
C29   C19    1.39606       .     S
C21   H22    0.94933       .     S
H22   C21    0.94933       .     S
C21   C24    1.38112   1_554     S
C24   C21    1.38112   1_556     S
C24   H25    0.94990       .     S
H25   C24    0.94990       .     S
C24   C26    1.38598       .     S
C26   C24    1.38598       .     S
C26   C27    1.38604   1_556     S
C27   C26    1.38604   1_554     S
C27   H28    0.94940   1_564     S
H28   C27    0.94940   1_546     S
C27   C29    1.38172       .     S
C29   C27    1.38172       .     S
C29   H30    0.94968       .     S
H30   C29    0.94968       .     S
N31   H32    0.87944       .     S
H32   N31    0.87944       .     S
N31   H33    0.88022       .     S
H33   N31    0.88022       .     S
N31   C40    1.32363       .     S
C40   N31    1.32363       .     S
N34   H35    0.87931       .     S
H35   N34    0.87931       .     S
N34   H36    0.87939       .     S
H36   N34    0.87939       .     S
N34   C40    1.33451       .     S
C40   N34    1.33451       .     S
N37   H38    0.88021       .     S
H38   N37    0.88021       .     S
N37   H39    0.87927       .     S
H39   N37    0.87927       .     S
N37   C40    1.32925       .     S
C40   N37    1.32925       .     S
O18   H33    2.07042       .     S
H33   O18    2.07042       .     S
O20   H35    2.10319       .     S
H35   O20    2.10319       .     S
C1    O0     1.36967       .     S
O0    C1     1.36967       .     S
C12   O0     1.43606       .     S
O0    C12    1.43606       .     S
C2    C1     1.38525       .     S
C1    C2     1.38525       .     S
C10   C1     1.39156       .     S
C1    C10    1.39156       .     S
H3    C2     0.94937       .     S
C2    H3     0.94937       .     S
C4    C2     1.38200   1_554     S
C2    C4     1.38200   1_556     S
H5    C4     0.95050       .     S
C4    H5     0.95050       .     S
C6    C4     1.36814       .     S
C4    C6     1.36814       .     S
H7    C6     0.95035       .     S
C6    H7     0.95035       .     S
C8    C6     1.38333       .     S
C6    C8     1.38333       .     S
H9    C8     0.95057   1_565     S
C8    H9     0.95057   1_545     S
C10   C8     1.38644   1_556     S
C8    C10    1.38644   1_554     S
H11   C10    0.94987       .     S
C10   H11    0.94987       .     S
H13   C12    0.98001       .     S
C12   H13    0.98001       .     S
H14   C12    0.98025       .     S
C12   H14    0.98025       .     S
H15   C12    0.98037       .     S
C12   H15    0.98037       .     S
C26   Br16   1.89474       .     S
Br16  C26    1.89474       .     S
O18   S17    1.46618       .     S
S17   O18    1.46618       .     S
C19   S17    1.76962       .     S
S17   C19    1.76962       .     S
O20   S17    1.45642       .     S
S17   O20    1.45642       .     S
O23   S17    1.45809       .     S
S17   O23    1.45809       .     S
C21   C19    1.38811       .     S
C19   C21    1.38811       .     S
C29   C19    1.39606       .     S
C19   C29    1.39606       .     S
H22   C21    0.94933       .     S
C21   H22    0.94933       .     S
C24   C21    1.38112   1_556     S
C21   C24    1.38112   1_554     S
H25   C24    0.94990       .     S
C24   H25    0.94990       .     S
C26   C24    1.38598       .     S
C24   C26    1.38598       .     S
C27   C26    1.38604   1_554     S
C26   C27    1.38604   1_556     S
H28   C27    0.94940   1_546     S
C27   H28    0.94940   1_564     S
C29   C27    1.38172       .     S
C27   C29    1.38172       .     S
H30   C29    0.94968       .     S
C29   H30    0.94968       .     S
H32   N31    0.87944       .     S
N31   H32    0.87944       .     S
H33   N31    0.88022       .     S
N31   H33    0.88022       .     S
C40   N31    1.32363       .     S
N31   C40    1.32363       .     S
H35   N34    0.87931       .     S
N34   H35    0.87931       .     S
H36   N34    0.87939       .     S
N34   H36    0.87939       .     S
C40   N34    1.33451       .     S
N34   C40    1.33451       .     S
H38   N37    0.88021       .     S
N37   H38    0.88021       .     S
H39   N37    0.87927       .     S
N37   H39    0.87927       .     S
C40   N37    1.32925       .     S
N37   C40    1.32925       .     S
