data_I
_chemical_name_common  '/data/user2/wty/HOF/MOFDiff/mofdiff/data/test/2_g4bbs2'
_cell_length_a 19.78600
_cell_length_b  7.52570
_cell_length_c 11.44800
_cell_angle_alpha 90.00000
_cell_angle_beta  90.00000
_cell_angle_gamma 90.00000
_space_group_name_H-M_alt      'P 1'


loop_
_space_group_symop_operation_xyz
  'x, y, z' 

loop_
_atom_site_label
_atom_site_fract_x
_atom_site_fract_y
_atom_site_fract_z
_atom_site_type_symbol
C0      0.2694   0.9146   0.2094     C
H1      0.2517   0.9793   0.2738     H
C2      0.3177   0.7338   0.0205     C
H3      0.3355   0.6723   0.9549     H
C4      0.3372   0.8785   0.2057     C
C5      0.2507   0.7692   0.0264     C
H6      0.2212   0.7327   0.9656     H
C7        0.36   0.7861   0.1088     C
H8      0.4067   0.7579   0.1034     H
C9      0.2263   0.8596   0.1224     C
H10     0.1793   0.8839   0.1285     H
C11     0.3848   0.9362   0.3012     C
H12     0.4063   0.0487   0.2793     H
H13     0.4196   0.8451   0.3125     H
H14     0.3594   0.9522    0.374     H
Br15   0.61074  0.56826  0.88851    Br
S16    0.92534  0.73321  0.83762     S
O17    0.94031   0.8944   0.9001     O
O18    0.95605   0.5786   0.8922     O
C19     0.8374   0.6997   0.8489     C
C20     0.7028   0.6271   0.8705     C
C21     0.7378   0.5647   0.7743     C
H22     0.7153   0.4961   0.7165     H
C23     0.8026   0.7659   0.9442     C
H24     0.8249   0.8368   0.0011     H
C25     0.8049   0.6024   0.7629     C
H26     0.8292   0.5622   0.6965     H
C27     0.7343   0.7263   0.9547     C
H28     0.7095   0.7679   0.0202     H
O29    0.94112   0.7434   0.7132     O
C30     0.9723   0.2362   0.6728     C
N31      0.946   0.2341   0.7795     N
H32     0.9406   0.3342   0.8182     H
H33     0.9339   0.1327   0.8116     H
N34     0.9788   0.0884    0.612     N
H35      0.995   0.0921   0.5405     H
H36      0.967    0.986    0.643     H
N37       0.99   0.3884   0.6263     N
H38     0.0061   0.3917   0.5548     H
H39     0.9856   0.4872   0.6667     H
loop_
_geom_bond_atom_site_label_1
_geom_bond_atom_site_label_2
_geom_bond_distance
_geom_bond_site_symmetry_2
_ccdc_geom_bond_type
H32   O18    2.04794       .     S
O18   H32    2.04794       .     S
H33   O17    2.06367   1_545     S
O17   H33    2.06367   1_565     S
H36   O29    2.05946       .     S
O29   H36    2.05946       .     S
H39   O29    2.18528       .     S
O29   H39    2.18528       .     S
C0    H1     0.95041       .     S
H1    C0     0.95041       .     S
C0    C4     1.36938       .     S
C4    C0     1.36938       .     S
C0    C9     1.37496       .     S
C9    C0     1.37496       .     S
C2    H3     0.94986   1_554     S
H3    C2     0.94986   1_556     S
C2    C5     1.35385       .     S
C5    C2     1.35385       .     S
C2    C7     1.37012       .     S
C7    C2     1.37012       .     S
C4    C7     1.38478       .     S
C7    C4     1.38478       .     S
C4    C11    1.50693       .     S
C11   C4     1.50693       .     S
C5    H6     0.94901   1_554     S
H6    C5     0.94901   1_556     S
C5    C9     1.37976       .     S
C9    C5     1.37976       .     S
C7    H8     0.95008       .     S
H8    C7     0.95008       .     S
C9    H10    0.95032       .     S
H10   C9     0.95032       .     S
C11   H12    0.98011   1_565     S
H12   C11    0.98011   1_545     S
C11   H13    0.98024       .     S
H13   C11    0.98024       .     S
C11   H14    0.98064       .     S
H14   C11    0.98064       .     S
Br15  C20    1.88585       .     S
C20   Br15   1.88585       .     S
S16   O17    1.43905       .     S
O17   S16    1.43905       .     S
S16   O18    1.45378       .     S
O18   S16    1.45378       .     S
S16   C19    1.76290       .     S
C19   S16    1.76290       .     S
S16   O29    1.46019       .     S
O29   S16    1.46019       .     S
C19   C23    1.38296       .     S
C23   C19    1.38296       .     S
C19   C25    1.38528       .     S
C25   C19    1.38528       .     S
C20   C21    1.38310       .     S
C21   C20    1.38310       .     S
C20   C27    1.36928       .     S
C27   C20    1.36928       .     S
C21   H22    0.95003       .     S
H22   C21    0.95003       .     S
C21   C25    1.36388       .     S
C25   C21    1.36388       .     S
C23   H24    0.95063   1_556     S
H24   C23    0.95063   1_554     S
C23   C27    1.38906       .     S
C27   C23    1.38906       .     S
C25   H26    0.94896       .     S
H26   C25    0.94896       .     S
C27   H28    0.94924   1_556     S
H28   C27    0.94924   1_554     S
C30   N31    1.32782       .     S
N31   C30    1.32782       .     S
C30   N34    1.31841       .     S
N34   C30    1.31841       .     S
C30   N37    1.31072       .     S
N37   C30    1.31072       .     S
N31   H32    0.88045       .     S
H32   N31    0.88045       .     S
N31   H33    0.88016       .     S
H33   N31    0.88016       .     S
N34   H35    0.87950       .     S
H35   N34    0.87950       .     S
N34   H36    0.87996   1_545     S
H36   N34    0.87996   1_565     S
N37   H38    0.87869   1_655     S
H38   N37    0.87869   1_455     S
N37   H39    0.87996       .     S
H39   N37    0.87996       .     S
O18   H32    2.04794       .     S
H32   O18    2.04794       .     S
O17   H33    2.06367   1_565     S
H33   O17    2.06367   1_545     S
O29   H36    2.05946       .     S
H36   O29    2.05946       .     S
O29   H39    2.18528       .     S
H39   O29    2.18528       .     S
H1    C0     0.95041       .     S
C0    H1     0.95041       .     S
C4    C0     1.36938       .     S
C0    C4     1.36938       .     S
C9    C0     1.37496       .     S
C0    C9     1.37496       .     S
H3    C2     0.94986   1_556     S
C2    H3     0.94986   1_554     S
C5    C2     1.35385       .     S
C2    C5     1.35385       .     S
C7    C2     1.37012       .     S
C2    C7     1.37012       .     S
C7    C4     1.38478       .     S
C4    C7     1.38478       .     S
C11   C4     1.50693       .     S
C4    C11    1.50693       .     S
H6    C5     0.94901   1_556     S
C5    H6     0.94901   1_554     S
C9    C5     1.37976       .     S
C5    C9     1.37976       .     S
H8    C7     0.95008       .     S
C7    H8     0.95008       .     S
H10   C9     0.95032       .     S
C9    H10    0.95032       .     S
H12   C11    0.98011   1_545     S
C11   H12    0.98011   1_565     S
H13   C11    0.98024       .     S
C11   H13    0.98024       .     S
H14   C11    0.98064       .     S
C11   H14    0.98064       .     S
C20   Br15   1.88585       .     S
Br15  C20    1.88585       .     S
O17   S16    1.43905       .     S
S16   O17    1.43905       .     S
O18   S16    1.45378       .     S
S16   O18    1.45378       .     S
C19   S16    1.76290       .     S
S16   C19    1.76290       .     S
O29   S16    1.46019       .     S
S16   O29    1.46019       .     S
C23   C19    1.38296       .     S
C19   C23    1.38296       .     S
C25   C19    1.38528       .     S
C19   C25    1.38528       .     S
C21   C20    1.38310       .     S
C20   C21    1.38310       .     S
C27   C20    1.36928       .     S
C20   C27    1.36928       .     S
H22   C21    0.95003       .     S
C21   H22    0.95003       .     S
C25   C21    1.36388       .     S
C21   C25    1.36388       .     S
H24   C23    0.95063   1_554     S
C23   H24    0.95063   1_556     S
C27   C23    1.38906       .     S
C23   C27    1.38906       .     S
H26   C25    0.94896       .     S
C25   H26    0.94896       .     S
H28   C27    0.94924   1_554     S
C27   H28    0.94924   1_556     S
N31   C30    1.32782       .     S
C30   N31    1.32782       .     S
N34   C30    1.31841       .     S
C30   N34    1.31841       .     S
N37   C30    1.31072       .     S
C30   N37    1.31072       .     S
H32   N31    0.88045       .     S
N31   H32    0.88045       .     S
H33   N31    0.88016       .     S
N31   H33    0.88016       .     S
H35   N34    0.87950       .     S
N34   H35    0.87950       .     S
H36   N34    0.87996   1_565     S
N34   H36    0.87996   1_545     S
H38   N37    0.87869   1_455     S
N37   H38    0.87869   1_655     S
H39   N37    0.87996       .     S
N37   H39    0.87996       .     S
