data_I
_chemical_name_common  '/data/user2/wty/HOF/MOFDiff/mofdiff/data/test/301-x-hof-4'
_cell_length_a 21.88770
_cell_length_b 10.17630
_cell_length_c 28.04600
_cell_angle_alpha 90.00000
_cell_angle_beta  104.81900
_cell_angle_gamma 90.00000
_space_group_name_H-M_alt      'P 1'


loop_
_space_group_symop_operation_xyz
  'x, y, z' 

loop_
_atom_site_label
_atom_site_fract_x
_atom_site_fract_y
_atom_site_fract_z
_atom_site_type_symbol
S0     0.14843  0.32832  0.37401     S
N1      0.2906  0.28369  0.42467     N
C2      0.2511  0.17246  0.41923     C
C3     0.27454  0.40235  0.39845     C
C4     0.22684  0.76163  0.31476     C
C5     0.24344  0.64056   0.3446     C
C6      0.1723  0.94787  0.41027     C
C7     0.13028  0.83188  0.40461     C
C8     0.19806  0.54491  0.34536     C
H9      0.1566   0.5591   0.3274     H
C10    0.18672  0.17914  0.39511     C
C11    0.21271     0.43   0.3719     C
C12      0.356   0.2615  0.44994     C
C13      0.149   0.0687  0.39066     C
H14     0.1065   0.0754    0.374     H
C15    0.31959   0.4986  0.39885     C
H16      0.361   0.4847   0.4171     H
C17    0.27438   0.0511  0.43846     C
H18      0.317   0.0433   0.4545     H
C19    0.30449   0.6146  0.37287     C
H20     0.3359   0.6771   0.3743     H
C21    0.23588   0.9421  0.43432     C
H22     0.2531   0.8629    0.448     H
C23     0.0485   0.6171  0.39335     C
C24    0.26225   0.8765   0.3263     C
H25     0.2973   0.8774   0.3533     H
C26    0.47807   0.2025  0.50029     C
C27    0.39873   0.2218  0.42432     C
H28     0.3863   0.2156   0.3901     H
C29     0.1751   0.7644   0.2736     C
H30     0.1508   0.6889    0.265     H
C31    0.19465   0.9889  0.25778     C
C32    0.37405   0.2732  0.50047     C
H33     0.3451   0.3012   0.5175     H
C34    0.13917   0.7334  0.44004     C
H35     0.1728   0.7396    0.468     H
N36    0.96908   0.4256  0.38238     N
C37    0.24631   0.9891  0.29836     C
H38     0.2703    0.065   0.3068     H
C39    0.07942   0.8192  0.36305     C
H40     0.0727   0.8833   0.3386     H
C41    0.45997   0.1914  0.44944     C
H42     0.4888   0.1635   0.4323     H
C43    0.03901   0.7134  0.35758     C
H44     0.0053   0.7069   0.3297     H
C45    0.15905   0.8757  0.24537     C
H46     0.1244    0.875   0.2181     H
C47    0.43518   0.2434  0.52588     C
H48     0.4475   0.2508   0.5601     H
C49    0.09916   0.6268  0.43452     C
H50     0.1062   0.5613   0.4584     H
N51    0.59233   0.1459  0.54797     N
N52    0.16492   0.1975  0.20437     N
C53    0.00445   0.5096  0.38759     C
C54    0.54219   0.1708  0.52701     C
C55    0.17837   0.1055  0.22809     C
C56    0.00618   0.6592  0.18891     C
H57     0.9863   0.7354   0.1744     H
C58    0.05201   0.6041  0.17178     C
H59     0.0638   0.6422   0.1453     H
C60     0.0816   0.4919  0.19309     C
H61     0.1127   0.4528   0.1806     H
C62    0.06548   0.4379   0.2325     C
H63     0.0863   0.3633   0.2476     H
C64    0.98885   0.6039  0.22739     C
H65     0.9564    0.641   0.2387     H
C66    0.01895   0.4932  0.24969     C
H67     0.0075   0.4562   0.2765     H
loop_
_geom_bond_atom_site_label_1
_geom_bond_atom_site_label_2
_geom_bond_distance
_geom_bond_site_symmetry_2
_ccdc_geom_bond_type
S0    C10    1.76168       .     S
C10   S0     1.76168       .     S
S0    C11    1.75961       .     S
C11   S0     1.75961       .     S
N1    C2     1.40872       .     S
C2    N1     1.40872       .     S
N1    C3     1.41075       .     S
C3    N1     1.41075       .     S
N1    C12    1.44340       .     S
C12   N1     1.44340       .     S
C2    C10    1.40010       .     S
C10   C2     1.40010       .     S
C2    C17    1.39110       .     S
C17   C2     1.39110       .     S
C3    C11    1.39629       .     S
C11   C3     1.39629       .     S
C3    C15    1.38784       .     S
C15   C3     1.38784       .     S
C4    C5     1.48148       .     S
C5    C4     1.48148       .     S
C4    C24    1.39412       .     S
C24   C4     1.39412       .     S
C4    C29    1.39540       .     S
C29   C4     1.39540       .     S
C5    C8     1.39474       .     S
C8    C5     1.39474       .     S
C5    C19    1.39356       .     S
C19   C5     1.39356       .     S
C6    C7     1.47974       .     S
C7    C6     1.47974       .     S
C6    C13    1.38961   1_565     S
C13   C6     1.38961   1_545     S
C6    C21    1.38378       .     S
C21   C6     1.38378       .     S
C7    C34    1.38948       .     S
C34   C7     1.38948       .     S
C7    C39    1.39669       .     S
C39   C7     1.39669       .     S
C8    H9     0.92965       .     S
H9    C8     0.92965       .     S
C8    C11    1.37919       .     S
C11   C8     1.37919       .     S
C10   C13    1.38115       .     S
C13   C10    1.38115       .     S
C12   C27    1.37767       .     S
C27   C12    1.37767       .     S
C12   C32    1.37558       .     S
C32   C12    1.37558       .     S
C13   H14    0.93057       .     S
H14   C13    0.93057       .     S
C15   H16    0.93069       .     S
H16   C15    0.93069       .     S
C15   C19    1.38218       .     S
C19   C15    1.38218       .     S
C17   H18    0.92964       .     S
H18   C17    0.92964       .     S
C17   C21    1.37982   1_545     S
C21   C17    1.37982   1_565     S
C19   H20    0.92988       .     S
H20   C19    0.92988       .     S
C21   H22    0.92998       .     S
H22   C21    0.92998       .     S
C23   C43    1.37961       .     S
C43   C23    1.37961       .     S
C23   C49    1.38476       .     S
C49   C23    1.38476       .     S
C23   C53    1.43970       .     S
C53   C23    1.43970       .     S
C24   H25    0.92999       .     S
H25   C24    0.92999       .     S
C24   C37    1.38163       .     S
C37   C24    1.38163       .     S
C26   C41    1.38368       .     S
C41   C26    1.38368       .     S
C26   C47    1.38356       .     S
C47   C26    1.38356       .     S
C26   C54    1.44821       .     S
C54   C26    1.44821       .     S
C27   H28    0.93034       .     S
H28   C27    0.93034       .     S
C27   C41    1.38046       .     S
C41   C27    1.38046       .     S
C29   H30    0.93045       .     S
H30   C29    0.93045       .     S
C29   C45    1.37507       .     S
C45   C29    1.37507       .     S
C31   C37    1.38403       .     S
C37   C31    1.38403       .     S
C31   C45    1.38440       .     S
C45   C31    1.38440       .     S
C31   C55    1.44100   1_565     S
C55   C31    1.44100   1_545     S
C32   H33    0.93040       .     S
H33   C32    0.93040       .     S
C32   C47    1.37924       .     S
C47   C32    1.37924       .     S
C34   H35    0.93030       .     S
H35   C34    0.93030       .     S
C34   C49    1.37778       .     S
C49   C34    1.37778       .     S
N36   C53    1.13733   1_655     S
C53   N36    1.13733   1_455     S
C37   H38    0.92991   1_565     S
H38   C37    0.92991   1_545     S
C39   H40    0.93046       .     S
H40   C39    0.93046       .     S
C39   C43    1.37681       .     S
C43   C39    1.37681       .     S
C41   H42    0.93008       .     S
H42   C41    0.93008       .     S
C43   H44    0.93009       .     S
H44   C43    0.93009       .     S
C45   H46    0.92923       .     S
H46   C45    0.92923       .     S
C47   H48    0.93118       .     S
H48   C47    0.93118       .     S
C49   H50    0.92940       .     S
H50   C49    0.92940       .     S
N51   C54    1.13321       .     S
C54   N51    1.13321       .     S
N52   C55    1.14261       .     S
C55   N52    1.14261       .     S
C56   H57    0.93041   1_455     S
H57   C56    0.93041   1_655     S
C56   C58    1.34088       .     S
C58   C56    1.34088       .     S
C56   C64    1.35450   1_455     S
C64   C56    1.35450   1_655     S
C58   H59    0.93086       .     S
H59   C58    0.93086       .     S
C58   C60    1.37198       .     S
C60   C58    1.37198       .     S
C60   H61    0.93079       .     S
H61   C60    0.93079       .     S
C60   C62    1.35927       .     S
C62   C60    1.35927       .     S
C62   H63    0.92984       .     S
H63   C62    0.92984       .     S
C62   C66    1.35554       .     S
C66   C62    1.35554       .     S
C64   H65    0.92890       .     S
H65   C64    0.92890       .     S
C64   C66    1.37239   1_655     S
C66   C64    1.37239   1_455     S
C66   H67    0.93078       .     S
H67   C66    0.93078       .     S
C10   S0     1.76168       .     S
S0    C10    1.76168       .     S
C11   S0     1.75961       .     S
S0    C11    1.75961       .     S
C2    N1     1.40872       .     S
N1    C2     1.40872       .     S
C3    N1     1.41075       .     S
N1    C3     1.41075       .     S
C12   N1     1.44340       .     S
N1    C12    1.44340       .     S
C10   C2     1.40010       .     S
C2    C10    1.40010       .     S
C17   C2     1.39110       .     S
C2    C17    1.39110       .     S
C11   C3     1.39629       .     S
C3    C11    1.39629       .     S
C15   C3     1.38784       .     S
C3    C15    1.38784       .     S
C5    C4     1.48148       .     S
C4    C5     1.48148       .     S
C24   C4     1.39412       .     S
C4    C24    1.39412       .     S
C29   C4     1.39540       .     S
C4    C29    1.39540       .     S
C8    C5     1.39474       .     S
C5    C8     1.39474       .     S
C19   C5     1.39356       .     S
C5    C19    1.39356       .     S
C7    C6     1.47974       .     S
C6    C7     1.47974       .     S
C13   C6     1.38961   1_545     S
C6    C13    1.38961   1_565     S
C21   C6     1.38378       .     S
C6    C21    1.38378       .     S
C34   C7     1.38948       .     S
C7    C34    1.38948       .     S
C39   C7     1.39669       .     S
C7    C39    1.39669       .     S
H9    C8     0.92965       .     S
C8    H9     0.92965       .     S
C11   C8     1.37919       .     S
C8    C11    1.37919       .     S
C13   C10    1.38115       .     S
C10   C13    1.38115       .     S
C27   C12    1.37767       .     S
C12   C27    1.37767       .     S
C32   C12    1.37558       .     S
C12   C32    1.37558       .     S
H14   C13    0.93057       .     S
C13   H14    0.93057       .     S
H16   C15    0.93069       .     S
C15   H16    0.93069       .     S
C19   C15    1.38218       .     S
C15   C19    1.38218       .     S
H18   C17    0.92964       .     S
C17   H18    0.92964       .     S
C21   C17    1.37982   1_565     S
C17   C21    1.37982   1_545     S
H20   C19    0.92988       .     S
C19   H20    0.92988       .     S
H22   C21    0.92998       .     S
C21   H22    0.92998       .     S
C43   C23    1.37961       .     S
C23   C43    1.37961       .     S
C49   C23    1.38476       .     S
C23   C49    1.38476       .     S
C53   C23    1.43970       .     S
C23   C53    1.43970       .     S
H25   C24    0.92999       .     S
C24   H25    0.92999       .     S
C37   C24    1.38163       .     S
C24   C37    1.38163       .     S
C41   C26    1.38368       .     S
C26   C41    1.38368       .     S
C47   C26    1.38356       .     S
C26   C47    1.38356       .     S
C54   C26    1.44821       .     S
C26   C54    1.44821       .     S
H28   C27    0.93034       .     S
C27   H28    0.93034       .     S
C41   C27    1.38046       .     S
C27   C41    1.38046       .     S
H30   C29    0.93045       .     S
C29   H30    0.93045       .     S
C45   C29    1.37507       .     S
C29   C45    1.37507       .     S
C37   C31    1.38403       .     S
C31   C37    1.38403       .     S
C45   C31    1.38440       .     S
C31   C45    1.38440       .     S
C55   C31    1.44100   1_545     S
C31   C55    1.44100   1_565     S
H33   C32    0.93040       .     S
C32   H33    0.93040       .     S
C47   C32    1.37924       .     S
C32   C47    1.37924       .     S
H35   C34    0.93030       .     S
C34   H35    0.93030       .     S
C49   C34    1.37778       .     S
C34   C49    1.37778       .     S
C53   N36    1.13733   1_455     S
N36   C53    1.13733   1_655     S
H38   C37    0.92991   1_545     S
C37   H38    0.92991   1_565     S
H40   C39    0.93046       .     S
C39   H40    0.93046       .     S
C43   C39    1.37681       .     S
C39   C43    1.37681       .     S
H42   C41    0.93008       .     S
C41   H42    0.93008       .     S
H44   C43    0.93009       .     S
C43   H44    0.93009       .     S
H46   C45    0.92923       .     S
C45   H46    0.92923       .     S
H48   C47    0.93118       .     S
C47   H48    0.93118       .     S
H50   C49    0.92940       .     S
C49   H50    0.92940       .     S
C54   N51    1.13321       .     S
N51   C54    1.13321       .     S
C55   N52    1.14261       .     S
N52   C55    1.14261       .     S
H57   C56    0.93041   1_655     S
C56   H57    0.93041   1_455     S
C58   C56    1.34088       .     S
C56   C58    1.34088       .     S
C64   C56    1.35450   1_655     S
C56   C64    1.35450   1_455     S
H59   C58    0.93086       .     S
C58   H59    0.93086       .     S
C60   C58    1.37198       .     S
C58   C60    1.37198       .     S
H61   C60    0.93079       .     S
C60   H61    0.93079       .     S
C62   C60    1.35927       .     S
C60   C62    1.35927       .     S
H63   C62    0.92984       .     S
C62   H63    0.92984       .     S
C66   C62    1.35554       .     S
C62   C66    1.35554       .     S
H65   C64    0.92890       .     S
C64   H65    0.92890       .     S
C66   C64    1.37239   1_455     S
C64   C66    1.37239   1_655     S
H67   C66    0.93078       .     S
C66   H67    0.93078       .     S
