data_I
_chemical_name_common  '/data/user2/wty/HOF/MOFDiff/mofdiff/data/test/301-pttcn-1'
_cell_length_a 16.42520
_cell_length_b 13.35270
_cell_length_c 12.26730
_cell_angle_alpha 90.00000
_cell_angle_beta  109.50300
_cell_angle_gamma 90.00000
_space_group_name_H-M_alt      'P 1'


loop_
_space_group_symop_operation_xyz
  'x, y, z' 

loop_
_atom_site_label
_atom_site_fract_x
_atom_site_fract_y
_atom_site_fract_z
_atom_site_type_symbol
S0     0.57435  0.91194  0.22703     S
N1     0.63208  0.82206   0.4614     N
N2     0.13494   0.8626   0.0431     N
N3     0.03835   0.4736   0.8754     N
N4     0.67267  0.01074  0.99085     N
C5     0.67858  0.86355  0.29826     C
C6     0.69769  0.82315  0.40936     C
C7     0.77876  0.78187  0.46157     C
H8     0.79134   0.7502  0.53282     H
C9     0.84091  0.78705  0.40948     C
H10    0.89565  0.76143  0.44793     H
C11    0.82385  0.82975  0.30045     C
C12    0.74035  0.86568  0.24435     C
H13    0.72613  0.89134  0.16984     H
C14    0.89125  0.83533  0.24504     C
C15       0.89  0.91007  0.16593     C
H16    0.84563  0.95701  0.14648     H
C17    0.95337  0.91593   0.1157     C
H18    0.95156  0.96696  0.06334     H
C19    0.01963  0.84659   0.1425     C
C20     0.0213    0.771   0.2197     C
H21    0.06534  0.72366  0.23808     H
C22     0.9578  0.76564   0.2695     C
H23    0.95945  0.71395  0.32103     H
C24    0.08492   0.8539   0.0885     C
C25    0.51532   0.8227  0.27674     C
C26    0.54983  0.78607  0.38869     C
C27    0.50602    0.712  0.42586     C
H28    0.52999  0.68503  0.49959     H
C29    0.42691  0.67813  0.35379     C
H30    0.39711  0.63018  0.38059     H
C31    0.39101  0.71485  0.24125     C
C32    0.43642  0.78731  0.20362     C
H33    0.41374  0.81231  0.12878     H
C34    0.30973  0.67168   0.1608     C
C35    0.29764  0.66378   0.0433     C
H36    0.33887  0.69011  0.01469     H
C37     0.2253  0.61742   0.9687     C
H38    0.21778  0.61308  0.89026     H
C39    0.16401  0.57741    0.011     C
C40    0.17363  0.58729   0.1266     C
H41     0.1314  0.56269  0.15457     H
C42    0.24603  0.63372   0.2007     C
H43    0.25235  0.63974  0.27863     H
C44    0.09253  0.52113   0.9344     C
C45     0.6418  0.86516  0.56919     C
C46    0.72253  0.89432  0.64548     C
H47    0.77129   0.8873  0.62368     H
C48     0.7306  0.93334  0.75261     C
H49    0.78491  0.95173  0.80235     H
C50    0.65963  0.94559  0.78727     C
C51    0.57924  0.91991  0.71105     C
H52    0.53054  0.92853  0.73266     H
C53    0.57053  0.88177  0.60361     C
H54    0.51568  0.86677  0.55287     H
C55    0.66761  0.98233    0.901     C
loop_
_geom_bond_atom_site_label_1
_geom_bond_atom_site_label_2
_geom_bond_distance
_geom_bond_site_symmetry_2
_ccdc_geom_bond_type
S0    C5     1.76440       .     S
C5    S0     1.76440       .     S
S0    C25    1.76823       .     S
C25   S0     1.76823       .     S
N1    C6     1.42424       .     S
C6    N1     1.42424       .     S
N1    C26    1.43075       .     S
C26   N1     1.43075       .     S
N1    C45    1.40150       .     S
C45   N1     1.40150       .     S
N2    C24    1.14202       .     S
C24   N2     1.14202       .     S
N3    C44    1.13513       .     S
C44   N3     1.13513       .     S
N4    C55    1.14216   1_545     S
C55   N4     1.14216   1_565     S
C5    C6     1.40049       .     S
C6    C5     1.40049       .     S
C5    C12    1.38404       .     S
C12   C5     1.38404       .     S
C6    C7     1.38481       .     S
C7    C6     1.38481       .     S
C7    H8     0.92999       .     S
H8    C7     0.92999       .     S
C7    C9     1.37505       .     S
C9    C7     1.37505       .     S
C9    H10    0.92992       .     S
H10   C9     0.92992       .     S
C9    C11    1.39365       .     S
C11   C9     1.39365       .     S
C11   C12    1.39806       .     S
C12   C11    1.39806       .     S
C11   C14    1.48176       .     S
C14   C11    1.48176       .     S
C12   H13    0.92998       .     S
H13   C12    0.92998       .     S
C14   C15    1.38740       .     S
C15   C14    1.38740       .     S
C14   C22    1.38990       .     S
C22   C14    1.38990       .     S
C15   H16    0.92995       .     S
H16   C15    0.92995       .     S
C15   C17    1.37748       .     S
C17   C15    1.37748       .     S
C17   H18    0.93005       .     S
H18   C17    0.93005       .     S
C17   C19    1.38235   1_655     S
C19   C17    1.38235   1_455     S
C19   C20    1.37805       .     S
C20   C19    1.37805       .     S
C19   C24    1.43970       .     S
C24   C19    1.43970       .     S
C20   H21    0.92993       .     S
H21   C20    0.92993       .     S
C20   C22    1.37537   1_455     S
C22   C20    1.37537   1_655     S
C22   H23    0.93020       .     S
H23   C22    0.93020       .     S
C25   C26    1.38808       .     S
C26   C25    1.38808       .     S
C25   C32    1.38967       .     S
C32   C25    1.38967       .     S
C26   C27    1.38672       .     S
C27   C26    1.38672       .     S
C27   H28    0.93005       .     S
H28   C27    0.93005       .     S
C27   C29    1.38114       .     S
C29   C27    1.38114       .     S
C29   H30    0.93008       .     S
H30   C29    0.93008       .     S
C29   C31    1.39660       .     S
C31   C29    1.39660       .     S
C31   C32    1.39120       .     S
C32   C31    1.39120       .     S
C31   C34    1.48622       .     S
C34   C31    1.48622       .     S
C32   H33    0.92991       .     S
H33   C32    0.92991       .     S
C34   C35    1.39180       .     S
C35   C34    1.39180       .     S
C34   C42    1.39038       .     S
C42   C34    1.39038       .     S
C35   H36    0.92957       .     S
H36   C35    0.92957       .     S
C35   C37    1.38074   1_554     S
C37   C35    1.38074   1_556     S
C37   H38    0.93015       .     S
H38   C37    0.93015       .     S
C37   C39    1.38453   1_556     S
C39   C37    1.38453   1_554     S
C39   C40    1.37977       .     S
C40   C39    1.37977       .     S
C39   C44    1.44552   1_554     S
C44   C39    1.44552   1_556     S
C40   H41    0.93041       .     S
H41   C40    0.93041       .     S
C40   C42    1.37950       .     S
C42   C40    1.37950       .     S
C42   H43    0.93000       .     S
H43   C42    0.93000       .     S
C45   C46    1.39898       .     S
C46   C45    1.39898       .     S
C45   C53    1.38848       .     S
C53   C45    1.38848       .     S
C46   H47    0.92992       .     S
H47   C46    0.92992       .     S
C46   C48    1.37834       .     S
C48   C46    1.37834       .     S
C48   H49    0.93002       .     S
H49   C48    0.93002       .     S
C48   C50    1.37743       .     S
C50   C48    1.37743       .     S
C50   C51    1.38238       .     S
C51   C50    1.38238       .     S
C50   C55    1.44299       .     S
C55   C50    1.44299       .     S
C51   H52    0.93004       .     S
H52   C51    0.93004       .     S
C51   C53    1.37515       .     S
C53   C51    1.37515       .     S
C53   H54    0.92993       .     S
H54   C53    0.92993       .     S
C5    S0     1.76440       .     S
S0    C5     1.76440       .     S
C25   S0     1.76823       .     S
S0    C25    1.76823       .     S
C6    N1     1.42424       .     S
N1    C6     1.42424       .     S
C26   N1     1.43075       .     S
N1    C26    1.43075       .     S
C45   N1     1.40150       .     S
N1    C45    1.40150       .     S
C24   N2     1.14202       .     S
N2    C24    1.14202       .     S
C44   N3     1.13513       .     S
N3    C44    1.13513       .     S
C55   N4     1.14216   1_565     S
N4    C55    1.14216   1_545     S
C6    C5     1.40049       .     S
C5    C6     1.40049       .     S
C12   C5     1.38404       .     S
C5    C12    1.38404       .     S
C7    C6     1.38481       .     S
C6    C7     1.38481       .     S
H8    C7     0.92999       .     S
C7    H8     0.92999       .     S
C9    C7     1.37505       .     S
C7    C9     1.37505       .     S
H10   C9     0.92992       .     S
C9    H10    0.92992       .     S
C11   C9     1.39365       .     S
C9    C11    1.39365       .     S
C12   C11    1.39806       .     S
C11   C12    1.39806       .     S
C14   C11    1.48176       .     S
C11   C14    1.48176       .     S
H13   C12    0.92998       .     S
C12   H13    0.92998       .     S
C15   C14    1.38740       .     S
C14   C15    1.38740       .     S
C22   C14    1.38990       .     S
C14   C22    1.38990       .     S
H16   C15    0.92995       .     S
C15   H16    0.92995       .     S
C17   C15    1.37748       .     S
C15   C17    1.37748       .     S
H18   C17    0.93005       .     S
C17   H18    0.93005       .     S
C19   C17    1.38235   1_455     S
C17   C19    1.38235   1_655     S
C20   C19    1.37805       .     S
C19   C20    1.37805       .     S
C24   C19    1.43970       .     S
C19   C24    1.43970       .     S
H21   C20    0.92993       .     S
C20   H21    0.92993       .     S
C22   C20    1.37537   1_655     S
C20   C22    1.37537   1_455     S
H23   C22    0.93020       .     S
C22   H23    0.93020       .     S
C26   C25    1.38808       .     S
C25   C26    1.38808       .     S
C32   C25    1.38967       .     S
C25   C32    1.38967       .     S
C27   C26    1.38672       .     S
C26   C27    1.38672       .     S
H28   C27    0.93005       .     S
C27   H28    0.93005       .     S
C29   C27    1.38114       .     S
C27   C29    1.38114       .     S
H30   C29    0.93008       .     S
C29   H30    0.93008       .     S
C31   C29    1.39660       .     S
C29   C31    1.39660       .     S
C32   C31    1.39120       .     S
C31   C32    1.39120       .     S
C34   C31    1.48622       .     S
C31   C34    1.48622       .     S
H33   C32    0.92991       .     S
C32   H33    0.92991       .     S
C35   C34    1.39180       .     S
C34   C35    1.39180       .     S
C42   C34    1.39038       .     S
C34   C42    1.39038       .     S
H36   C35    0.92957       .     S
C35   H36    0.92957       .     S
C37   C35    1.38074   1_556     S
C35   C37    1.38074   1_554     S
H38   C37    0.93015       .     S
C37   H38    0.93015       .     S
C39   C37    1.38453   1_554     S
C37   C39    1.38453   1_556     S
C40   C39    1.37977       .     S
C39   C40    1.37977       .     S
C44   C39    1.44552   1_556     S
C39   C44    1.44552   1_554     S
H41   C40    0.93041       .     S
C40   H41    0.93041       .     S
C42   C40    1.37950       .     S
C40   C42    1.37950       .     S
H43   C42    0.93000       .     S
C42   H43    0.93000       .     S
C46   C45    1.39898       .     S
C45   C46    1.39898       .     S
C53   C45    1.38848       .     S
C45   C53    1.38848       .     S
H47   C46    0.92992       .     S
C46   H47    0.92992       .     S
C48   C46    1.37834       .     S
C46   C48    1.37834       .     S
H49   C48    0.93002       .     S
C48   H49    0.93002       .     S
C50   C48    1.37743       .     S
C48   C50    1.37743       .     S
C51   C50    1.38238       .     S
C50   C51    1.38238       .     S
C55   C50    1.44299       .     S
C50   C55    1.44299       .     S
H52   C51    0.93004       .     S
C51   H52    0.93004       .     S
C53   C51    1.37515       .     S
C51   C53    1.37515       .     S
H54   C53    0.92993       .     S
C53   H54    0.92993       .     S
