data_I
_chemical_name_common  '/data/user2/wty/HOF/MOFDiff/mofdiff/data/test/305-hof-45'
_cell_length_a 21.42050
_cell_length_b 21.42050
_cell_length_c 17.94460
_cell_angle_alpha 90.00000
_cell_angle_beta  90.00000
_cell_angle_gamma 120.00000
_space_group_name_H-M_alt      'P 1'


loop_
_space_group_symop_operation_xyz
  'x, y, z' 

loop_
_atom_site_label
_atom_site_fract_x
_atom_site_fract_y
_atom_site_fract_z
_atom_site_type_symbol
N0      0.4783   0.7244     0.25     N
N1      0.5846   0.7529   0.3185     N
N2      0.6919    0.797     0.25     N
H3     0.70649  0.84238  0.24989     H
O4      0.4813   0.7175   0.3791     O
C5      0.4048   0.6913  0.37926     C
C6      0.3772   0.7418   0.3753     C
H7     0.40773  0.79127  0.37032     H
C8     0.51341  0.72919  0.31193     C
C9     0.61725  0.76466  0.25004     C
C10    0.75586   0.7938  0.25005     C
H11     0.7848  0.81506  0.29435     H
C12     0.7181    0.713   0.2501     C
C13     0.6941   0.6489   0.2501     C
H14    0.67555  0.59927   0.2501     H
N15     0.8602   0.9081   0.0287     N
N16     0.7466   0.8404   0.0936     N
N17     0.7466   0.8431   0.9641     N
N18     0.6479   0.7674   0.0296     N
H19    0.63303  0.74792   0.0726     H
O20     0.8526   0.9079   0.1548     O
O21     0.8532   0.9029   0.8997     O
C22     0.9265   0.9517   0.1511     C
C23      0.976   0.9271   0.1577     C
H24     0.9593  0.87714  0.16757     H
C25     0.9264    0.953   0.9026     C
C26     0.9778   0.9248   0.8977     C
H27    0.96146  0.87438  0.89211     H
C28    0.82062   0.8857  0.09405     C
C29    0.71163   0.8171  0.02517     C
C30     0.8204   0.8779  0.96528     C
C31    0.59712   0.7398  0.96992     C
H32    0.61494  0.77023  0.92605     H
H33    0.55104  0.73445  0.98437     H
C34     0.5919   0.6677   0.9573     C
C35     0.5962   0.6145    0.946     C
H36    0.59945  0.57341   0.9373     H
loop_
_geom_bond_atom_site_label_1
_geom_bond_atom_site_label_2
_geom_bond_distance
_geom_bond_site_symmetry_2
_ccdc_geom_bond_type
N0    C8     1.31681       .     S
C8    N0     1.31681       .     S
N1    C8     1.35010       .     S
C8    N1     1.35010       .     S
N1    C9     1.37317       .     S
C9    N1     1.37317       .     S
N2    H3     0.85953       .     S
H3    N2     0.85953       .     S
N2    C9     1.38892       .     S
C9    N2     1.38892       .     S
N2    C10    1.40558       .     S
C10   N2     1.40558       .     S
O4    C5     1.44241       .     S
C5    O4     1.44241       .     S
O4    C8     1.34774       .     S
C8    O4     1.34774       .     S
C5    C6     1.47114       .     S
C6    C5     1.47114       .     S
C6    H7     0.93036       .     S
H7    C6     0.93036       .     S
C10   H11    0.97021       .     S
H11   C10    0.97021       .     S
C10   C12    1.49996       .     S
C12   C10    1.49996       .     S
C12   C13    1.20154       .     S
C13   C12    1.20154       .     S
C13   H14    0.93040       .     S
H14   C13    0.93040       .     S
N15   C28    1.38470       .     S
C28   N15    1.38470       .     S
N15   C30    1.37439   1_554     S
C30   N15    1.37439   1_556     S
N16   C28    1.38458       .     S
C28   N16    1.38458       .     S
N16   C29    1.39435       .     S
C29   N16    1.39435       .     S
N17   C29    1.28649   1_556     S
C29   N17    1.28649   1_554     S
N17   C30    1.36994       .     S
C30   N17    1.36994       .     S
N18   H19    0.85910       .     S
H19   N18    0.85910       .     S
N18   C29    1.24497       .     S
C29   N18    1.24497       .     S
N18   C31    1.42707   1_554     S
C31   N18    1.42706   1_556     S
O20   C22    1.38033       .     S
C22   O20    1.38033       .     S
O20   C28    1.24821       .     S
C28   O20    1.24821       .     S
O21   C25    1.38933       .     S
C25   O21    1.38933       .     S
O21   C30    1.33755       .     S
C30   O21    1.33755       .     S
C22   C23    1.40524       .     S
C23   C22    1.40524       .     S
C23   H24    0.96009       .     S
H24   C23    0.96009       .     S
C25   C26    1.49998       .     S
C26   C25    1.49998       .     S
C26   H27    0.95969       .     S
H27   C26    0.95969       .     S
C31   H32    0.97031       .     S
H32   C31    0.97031       .     S
C31   H33    0.97033       .     S
H33   C31    0.97033       .     S
C31   C34    1.50875       .     S
C34   C31    1.50875       .     S
C34   C35    1.20548       .     S
C35   C34    1.20548       .     S
C35   H36    0.93016       .     S
H36   C35    0.93016       .     S
C8    N0     1.31681       .     S
N0    C8     1.31681       .     S
C8    N1     1.35010       .     S
N1    C8     1.35010       .     S
C9    N1     1.37317       .     S
N1    C9     1.37317       .     S
H3    N2     0.85953       .     S
N2    H3     0.85953       .     S
C9    N2     1.38892       .     S
N2    C9     1.38892       .     S
C10   N2     1.40558       .     S
N2    C10    1.40558       .     S
C5    O4     1.44241       .     S
O4    C5     1.44241       .     S
C8    O4     1.34774       .     S
O4    C8     1.34774       .     S
C6    C5     1.47114       .     S
C5    C6     1.47114       .     S
H7    C6     0.93036       .     S
C6    H7     0.93036       .     S
H11   C10    0.97021       .     S
C10   H11    0.97021       .     S
C12   C10    1.49996       .     S
C10   C12    1.49996       .     S
C13   C12    1.20154       .     S
C12   C13    1.20154       .     S
H14   C13    0.93040       .     S
C13   H14    0.93040       .     S
C28   N15    1.38470       .     S
N15   C28    1.38470       .     S
C30   N15    1.37439   1_556     S
N15   C30    1.37439   1_554     S
C28   N16    1.38458       .     S
N16   C28    1.38458       .     S
C29   N16    1.39435       .     S
N16   C29    1.39435       .     S
C29   N17    1.28649   1_554     S
N17   C29    1.28649   1_556     S
C30   N17    1.36994       .     S
N17   C30    1.36994       .     S
H19   N18    0.85910       .     S
N18   H19    0.85910       .     S
C29   N18    1.24497       .     S
N18   C29    1.24497       .     S
C31   N18    1.42706   1_556     S
N18   C31    1.42707   1_554     S
C22   O20    1.38033       .     S
O20   C22    1.38033       .     S
C28   O20    1.24821       .     S
O20   C28    1.24821       .     S
C25   O21    1.38933       .     S
O21   C25    1.38933       .     S
C30   O21    1.33755       .     S
O21   C30    1.33755       .     S
C23   C22    1.40524       .     S
C22   C23    1.40524       .     S
H24   C23    0.96009       .     S
C23   H24    0.96009       .     S
C26   C25    1.49998       .     S
C25   C26    1.49998       .     S
H27   C26    0.95969       .     S
C26   H27    0.95969       .     S
H32   C31    0.97031       .     S
C31   H32    0.97031       .     S
H33   C31    0.97033       .     S
C31   H33    0.97033       .     S
C34   C31    1.50875       .     S
C31   C34    1.50875       .     S
C35   C34    1.20548       .     S
C34   C35    1.20548       .     S
H36   C35    0.93016       .     S
C35   H36    0.93016       .     S
