data_I
_chemical_name_common  '/data/user2/wty/HOF/MOFDiff/mofdiff/data/test/307-mthof-1'
_cell_length_a 29.34190
_cell_length_b  5.19650
_cell_length_c 32.44750
_cell_angle_alpha 90.00000
_cell_angle_beta  107.43500
_cell_angle_gamma 90.00000
_space_group_name_H-M_alt      'P 1'


loop_
_space_group_symop_operation_xyz
  'x, y, z' 

loop_
_atom_site_label
_atom_site_fract_x
_atom_site_fract_y
_atom_site_fract_z
_atom_site_type_symbol
O0     0.94561   0.1089  0.45211     O
N1     0.93388   0.6803  0.45563     N
H2     0.94524  0.53174  0.45237     H
O3     0.55281     0.36  0.56446     O
N4     0.56444   0.7798  0.55344     N
H5     0.55449  0.93393  0.55519     H
N6     0.68618   0.5631  0.31062     N
H7     0.67952   0.7085  0.29752     H
O8     0.80998   0.2107  0.71656     O
N9     0.81533   0.6351  0.70319     N
H10    0.82112  0.78398  0.71522     H
C11    0.81495     0.67  0.50338     C
O12    0.69518    0.139  0.29967     O
C13    0.68459    0.695  0.50879     C
C14    0.89405   0.6859  0.47222     C
C15    0.72721    0.662  0.49285     C
C16    0.77253   0.6619  0.51969     C
C17    0.71547   0.6285  0.44533     C
C18    0.78391   0.6529  0.56746     C
C19    0.89095   0.5003  0.50184     C
H20     0.9151  0.37885  0.51137     H
C21    0.85176   0.4962  0.51721     C
H22    0.85026  0.37242  0.53746     H
C23    0.60674   0.5528  0.50989     C
H24    0.58158   0.4369  0.50074     H
C25    0.95529   0.8876  0.44459     C
C26    0.60462    0.748  0.53775     C
C27    0.64632   0.5289  0.49546     C
H28    0.64717  0.39738  0.47627     H
C29    0.69499   0.5693   0.3557     C
C30    0.81432    0.831  0.59419     C
H31    0.82816  0.95914  0.58188     H
C32     0.6853   0.7971  0.41672     C
H33    0.67136  0.93205  0.42743     H
C34    0.85831   0.8644  0.45879     C
H35    0.86042  0.99217  0.43938     H
C36    0.99201   0.8341  0.42246     C
C37     0.5411   0.5865  0.56565     C
C38    0.50017   0.6567  0.58184     C
C39    0.64126   0.9215  0.55012     C
H40    0.63957   0.0579  0.56816     H
C41    0.81922    0.855    0.474     C
H42    0.79504  0.97608  0.46426     H
C43    0.80564   0.6283  0.65769     C
C44    0.68111   0.8932  0.53559     C
H45    0.70593  0.01155  0.54427     H
C46    0.67562   0.7686  0.37294     C
H47    0.65558  0.88599  0.35451     H
C48    0.73352   0.4248  0.42754     C
H49    0.75278  0.30427   0.4459     H
C50    0.82427   0.8217  0.63811     C
H51     0.8438   0.9468  0.65507     H
C52    0.72392   0.3947  0.38355     C
H53    0.73694  0.25677  0.37267     H
C54    0.76605   0.4615  0.58793     C
H55    0.74628  0.33685  0.57109     H
C56    0.67671   0.4094  0.23833     C
C57    0.81644    0.433  0.72973     C
C58    0.68688   0.3562  0.28516     C
C59    0.82664   0.4927  0.77616     C
C60    0.47171   0.8709  0.56663     C
H61    0.47926  0.98181  0.54715     H
C62    0.77621   0.4476  0.63185     C
H63    0.76324  0.31627  0.64426     H
C64     0.0297   0.0061  0.42894     C
H65    0.03177  0.14522  0.44745     H
C66    0.48858   0.4967  0.61027     C
H67    0.50715  0.35164  0.62029     H
C68    0.42145   0.7584  0.60955     C
H69    0.39523   0.7922  0.61919     H
C70     0.4323   0.9199   0.5803     C
H71    0.41312  0.06214  0.56972     H
C72    0.98957   0.6299   0.3953     C
H73    0.96455  0.51276  0.39049     H
C74    0.69634   0.2426  0.21435     C
H75    0.71599  0.10792  0.22799     H
C76    0.80801    0.333  0.80109     C
H77    0.78947  0.19257  0.78837     H
C78    0.64785   0.6029  0.21721     C
H79    0.63443  0.71519  0.23267     H
C80    0.44957   0.5468  0.62447     C
H81    0.44231  0.43681  0.64423     H
C82     0.0613   0.7731  0.38144     C
H83    0.08439  0.75382  0.36733     H
C84     0.0637    0.974  0.40856     C
H85    0.08874  0.09089  0.41331     H
C86     0.8552   0.6969  0.79637     C
H87    0.86813  0.80809   0.7804     H
C88      0.657   0.4754  0.15008     C
H89    0.65015   0.4975   0.1204     H
C90     0.0249    0.598  0.37477     C
H91     0.0236  0.45807  0.35659     H
C92     0.6865   0.2783  0.17051     C
H93    0.69983  0.16865  0.15462     H
C94     0.8165    0.379  0.84446     C
H95    0.80271  0.27393  0.86062     H
C96     0.6381   0.6355  0.17299     C
H97    0.61838  0.76923  0.15914     H
C98     0.8452   0.5783  0.86382     C
H99    0.85153   0.6066  0.89331     H
C100    0.8643   0.7346  0.84024     C
H101   0.88398  0.86962   0.8537     H
loop_
_geom_bond_atom_site_label_1
_geom_bond_atom_site_label_2
_geom_bond_distance
_geom_bond_site_symmetry_2
_ccdc_geom_bond_type
H2    O0     2.19734       .     S
O0    H2     2.19734       .     S
H5    O3     2.23694   1_565     S
O3    H5     2.23694   1_545     S
H7    O12    2.28065   1_565     S
O12   H7     2.28065   1_545     S
H10   O8     2.24373   1_565     S
O8    H10    2.24373   1_545     S
O0    C25    1.22646   1_545     S
C25   O0     1.22646   1_565     S
N1    H2     0.85988       .     S
H2    N1     0.85988       .     S
N1    C14    1.42599       .     S
C14   N1     1.42599       .     S
N1    C25    1.34843       .     S
C25   N1     1.34843       .     S
O3    C37    1.22998       .     S
C37   O3     1.22998       .     S
N4    H5     0.86017       .     S
H5    N4     0.86017       .     S
N4    C26    1.42692       .     S
C26   N4     1.42692       .     S
N4    C37    1.34073       .     S
C37   N4     1.34073       .     S
N6    H7     0.86022       .     S
H7    N6     0.86022       .     S
N6    C29    1.40743       .     S
C29   N6     1.40743       .     S
N6    C58    1.35978       .     S
C58   N6     1.35978       .     S
O8    C57    1.22656       .     S
C57   O8     1.22656       .     S
N9    H10    0.86025       .     S
H10   N9     0.86025       .     S
N9    C43    1.41781       .     S
C43   N9     1.41781       .     S
N9    C57    1.35233       .     S
C57   N9     1.35233       .     S
C11   C16    1.49191       .     S
C16   C11    1.49191       .     S
C11   C21    1.37593       .     S
C21   C11    1.37593       .     S
C11   C41    1.38574       .     S
C41   C11    1.38574       .     S
O12   C58    1.21909       .     S
C58   O12    1.21909       .     S
C13   C15    1.49946       .     S
C15   C13    1.49946       .     S
C13   C27    1.37912       .     S
C27   C13    1.37912       .     S
C13   C44    1.37136       .     S
C44   C13    1.37136       .     S
C14   C19    1.38368       .     S
C19   C14    1.38368       .     S
C14   C34    1.36973       .     S
C34   C14    1.36973       .     S
C15   C16    1.35380       .     S
C16   C15    1.35380       .     S
C15   C17    1.48598       .     S
C17   C15    1.48598       .     S
C16   C18    1.48529       .     S
C18   C16    1.48529       .     S
C17   C32    1.38585       .     S
C32   C17    1.38585       .     S
C17   C48    1.38470       .     S
C48   C17    1.38470       .     S
C18   C30    1.39327       .     S
C30   C18    1.39327       .     S
C18   C54    1.38334       .     S
C54   C18    1.38334       .     S
C19   H20    0.92992       .     S
H20   C19    0.92992       .     S
C19   C21    1.38388       .     S
C21   C19    1.38388       .     S
C21   H22    0.92991       .     S
H22   C21    0.92991       .     S
C23   H24    0.92981       .     S
H24   C23    0.92981       .     S
C23   C26    1.37247       .     S
C26   C23    1.37247       .     S
C23   C27    1.38175       .     S
C27   C23    1.38175       .     S
C25   C36    1.48909       .     S
C36   C25    1.48909       .     S
C26   C39    1.36792       .     S
C39   C26    1.36792       .     S
C27   H28    0.92991       .     S
H28   C27    0.92991       .     S
C29   C46    1.37807       .     S
C46   C29    1.37807       .     S
C29   C52    1.37866       .     S
C52   C29    1.37866       .     S
C30   H31    0.93008       .     S
H31   C30    0.93008       .     S
C30   C50    1.36717       .     S
C50   C30    1.36717       .     S
C32   H33    0.93007       .     S
H33   C32    0.93007       .     S
C32   C46    1.37069       .     S
C46   C32    1.37069       .     S
C34   H35    0.92989       .     S
H35   C34    0.92989       .     S
C34   C41    1.37866       .     S
C41   C34    1.37866       .     S
C36   C64    1.38807   1_665     S
C64   C36    1.38807   1_445     S
C36   C72    1.36746       .     S
C72   C36    1.36746       .     S
C37   C38    1.49312       .     S
C38   C37    1.49312       .     S
C38   C60    1.39029       .     S
C60   C38    1.39029       .     S
C38   C66    1.35864       .     S
C66   C38    1.35864       .     S
C39   H40    0.93000   1_565     S
H40   C39    0.93000   1_545     S
C39   C44    1.39336       .     S
C44   C39    1.39336       .     S
C41   H42    0.92993       .     S
H42   C41    0.92993       .     S
C43   C50    1.38586       .     S
C50   C43    1.38586       .     S
C43   C62    1.37715       .     S
C62   C43    1.37715       .     S
C44   H45    0.93006   1_565     S
H45   C44    0.93006   1_545     S
C46   H47    0.92993       .     S
H47   C46    0.92993       .     S
C48   H49    0.92996       .     S
H49   C48    0.92996       .     S
C48   C52    1.37850       .     S
C52   C48    1.37850       .     S
C50   H51    0.92998       .     S
H51   C50    0.92998       .     S
C52   H53    0.93013       .     S
H53   C52    0.93013       .     S
C54   H55    0.92989       .     S
H55   C54    0.92989       .     S
C54   C62    1.36762       .     S
C62   C54    1.36762       .     S
C56   C58    1.48414       .     S
C58   C56    1.48414       .     S
C56   C74    1.39894       .     S
C74   C56    1.39894       .     S
C56   C78    1.36016       .     S
C78   C56    1.36016       .     S
C57   C59    1.47827       .     S
C59   C57    1.47827       .     S
C59   C76    1.38088       .     S
C76   C59    1.38088       .     S
C59   C86    1.38887       .     S
C86   C59    1.38887       .     S
C60   H61    0.92988       .     S
H61   C60    0.92988       .     S
C60   C70    1.38062       .     S
C70   C60    1.38062       .     S
C62   H63    0.92981       .     S
H63   C62    0.92981       .     S
C64   H65    0.93016       .     S
H65   C64    0.93016       .     S
C64   C84    1.36224   1_545     S
C84   C64    1.36224   1_565     S
C66   H67    0.92987       .     S
H67   C66    0.92987       .     S
C66   C80    1.38068       .     S
C80   C66    1.38068       .     S
C68   H69    0.92994       .     S
H69   C68    0.92994       .     S
C68   C70    1.37387       .     S
C70   C68    1.37387       .     S
C68   C80    1.37290       .     S
C80   C68    1.37290       .     S
C70   H71    0.93013   1_565     S
H71   C70    0.93013   1_545     S
C72   H73    0.93016       .     S
H73   C72    0.93016       .     S
C72   C90    1.39989   1_655     S
C90   C72    1.39989   1_455     S
C74   H75    0.93016       .     S
H75   C74    0.93016       .     S
C74   C92    1.37665       .     S
C92   C74    1.37665       .     S
C76   H77    0.92966       .     S
H77   C76    0.92966       .     S
C76   C94    1.37458       .     S
C94   C76    1.37458       .     S
C78   H79    0.93035       .     S
H79   C78    0.93035       .     S
C78   C96    1.38683       .     S
C96   C78    1.38683       .     S
C80   H81    0.93005       .     S
H81   C80    0.93005       .     S
C82   H83    0.92981       .     S
H83   C82    0.92981       .     S
C82   C84    1.35354       .     S
C84   C82    1.35354       .     S
C82   C90    1.37003       .     S
C90   C82    1.37003       .     S
C84   H85    0.92988   1_565     S
H85   C84    0.92988   1_545     S
C86   H87    0.92958       .     S
H87   C86    0.92958       .     S
C86   C100   1.38137       .     S
C100  C86    1.38137       .     S
C88   H89    0.93008       .     S
H89   C88    0.93008       .     S
C88   C92    1.37618       .     S
C92   C88    1.37618       .     S
C88   C96    1.34139       .     S
C96   C88    1.34139       .     S
C90   H91    0.92989       .     S
H91   C90    0.92989       .     S
C92   H93    0.92969       .     S
H93   C92    0.92969       .     S
C94   H95    0.92947       .     S
H95   C94    0.92947       .     S
C94   C98    1.36358       .     S
C98   C94    1.36358       .     S
C96   H97    0.92944       .     S
H97   C96    0.92944       .     S
C98   H99    0.93018       .     S
H99   C98    0.93018       .     S
C98   C100   1.34764       .     S
C100  C98    1.34764       .     S
C100  H101   0.93024       .     S
H101  C100   0.93024       .     S
O0    H2     2.19734       .     S
H2    O0     2.19734       .     S
O3    H5     2.23694   1_545     S
H5    O3     2.23694   1_565     S
O12   H7     2.28065   1_545     S
H7    O12    2.28065   1_565     S
O8    H10    2.24373   1_545     S
H10   O8     2.24373   1_565     S
C25   O0     1.22646   1_565     S
O0    C25    1.22646   1_545     S
H2    N1     0.85988       .     S
N1    H2     0.85988       .     S
C14   N1     1.42599       .     S
N1    C14    1.42599       .     S
C25   N1     1.34843       .     S
N1    C25    1.34843       .     S
C37   O3     1.22998       .     S
O3    C37    1.22998       .     S
H5    N4     0.86017       .     S
N4    H5     0.86017       .     S
C26   N4     1.42692       .     S
N4    C26    1.42692       .     S
C37   N4     1.34073       .     S
N4    C37    1.34073       .     S
H7    N6     0.86022       .     S
N6    H7     0.86022       .     S
C29   N6     1.40743       .     S
N6    C29    1.40743       .     S
C58   N6     1.35978       .     S
N6    C58    1.35978       .     S
C57   O8     1.22656       .     S
O8    C57    1.22656       .     S
H10   N9     0.86025       .     S
N9    H10    0.86025       .     S
C43   N9     1.41781       .     S
N9    C43    1.41781       .     S
C57   N9     1.35233       .     S
N9    C57    1.35233       .     S
C16   C11    1.49191       .     S
C11   C16    1.49191       .     S
C21   C11    1.37593       .     S
C11   C21    1.37593       .     S
C41   C11    1.38574       .     S
C11   C41    1.38574       .     S
C58   O12    1.21909       .     S
O12   C58    1.21909       .     S
C15   C13    1.49946       .     S
C13   C15    1.49946       .     S
C27   C13    1.37912       .     S
C13   C27    1.37912       .     S
C44   C13    1.37136       .     S
C13   C44    1.37136       .     S
C19   C14    1.38368       .     S
C14   C19    1.38368       .     S
C34   C14    1.36973       .     S
C14   C34    1.36973       .     S
C16   C15    1.35380       .     S
C15   C16    1.35380       .     S
C17   C15    1.48598       .     S
C15   C17    1.48598       .     S
C18   C16    1.48529       .     S
C16   C18    1.48529       .     S
C32   C17    1.38585       .     S
C17   C32    1.38585       .     S
C48   C17    1.38470       .     S
C17   C48    1.38470       .     S
C30   C18    1.39327       .     S
C18   C30    1.39327       .     S
C54   C18    1.38334       .     S
C18   C54    1.38334       .     S
H20   C19    0.92992       .     S
C19   H20    0.92992       .     S
C21   C19    1.38388       .     S
C19   C21    1.38388       .     S
H22   C21    0.92991       .     S
C21   H22    0.92991       .     S
H24   C23    0.92981       .     S
C23   H24    0.92981       .     S
C26   C23    1.37247       .     S
C23   C26    1.37247       .     S
C27   C23    1.38175       .     S
C23   C27    1.38175       .     S
C36   C25    1.48909       .     S
C25   C36    1.48909       .     S
C39   C26    1.36792       .     S
C26   C39    1.36792       .     S
H28   C27    0.92991       .     S
C27   H28    0.92991       .     S
C46   C29    1.37807       .     S
C29   C46    1.37807       .     S
C52   C29    1.37866       .     S
C29   C52    1.37866       .     S
H31   C30    0.93008       .     S
C30   H31    0.93008       .     S
C50   C30    1.36717       .     S
C30   C50    1.36717       .     S
H33   C32    0.93007       .     S
C32   H33    0.93007       .     S
C46   C32    1.37069       .     S
C32   C46    1.37069       .     S
H35   C34    0.92989       .     S
C34   H35    0.92989       .     S
C41   C34    1.37866       .     S
C34   C41    1.37866       .     S
C64   C36    1.38807   1_445     S
C36   C64    1.38807   1_665     S
C72   C36    1.36746       .     S
C36   C72    1.36746       .     S
C38   C37    1.49312       .     S
C37   C38    1.49312       .     S
C60   C38    1.39029       .     S
C38   C60    1.39029       .     S
C66   C38    1.35864       .     S
C38   C66    1.35864       .     S
H40   C39    0.93000   1_545     S
C39   H40    0.93000   1_565     S
C44   C39    1.39336       .     S
C39   C44    1.39336       .     S
H42   C41    0.92993       .     S
C41   H42    0.92993       .     S
C50   C43    1.38586       .     S
C43   C50    1.38586       .     S
C62   C43    1.37715       .     S
C43   C62    1.37715       .     S
H45   C44    0.93006   1_545     S
C44   H45    0.93006   1_565     S
H47   C46    0.92993       .     S
C46   H47    0.92993       .     S
H49   C48    0.92996       .     S
C48   H49    0.92996       .     S
C52   C48    1.37850       .     S
C48   C52    1.37850       .     S
H51   C50    0.92998       .     S
C50   H51    0.92998       .     S
H53   C52    0.93013       .     S
C52   H53    0.93013       .     S
H55   C54    0.92989       .     S
C54   H55    0.92989       .     S
C62   C54    1.36762       .     S
C54   C62    1.36762       .     S
C58   C56    1.48414       .     S
C56   C58    1.48414       .     S
C74   C56    1.39894       .     S
C56   C74    1.39894       .     S
C78   C56    1.36016       .     S
C56   C78    1.36016       .     S
C59   C57    1.47827       .     S
C57   C59    1.47827       .     S
C76   C59    1.38088       .     S
C59   C76    1.38088       .     S
C86   C59    1.38887       .     S
C59   C86    1.38887       .     S
H61   C60    0.92988       .     S
C60   H61    0.92988       .     S
C70   C60    1.38062       .     S
C60   C70    1.38062       .     S
H63   C62    0.92981       .     S
C62   H63    0.92981       .     S
H65   C64    0.93016       .     S
C64   H65    0.93016       .     S
C84   C64    1.36224   1_565     S
C64   C84    1.36224   1_545     S
H67   C66    0.92987       .     S
C66   H67    0.92987       .     S
C80   C66    1.38068       .     S
C66   C80    1.38068       .     S
H69   C68    0.92994       .     S
C68   H69    0.92994       .     S
C70   C68    1.37387       .     S
C68   C70    1.37387       .     S
C80   C68    1.37290       .     S
C68   C80    1.37290       .     S
H71   C70    0.93013   1_545     S
C70   H71    0.93013   1_565     S
H73   C72    0.93016       .     S
C72   H73    0.93016       .     S
C90   C72    1.39989   1_455     S
C72   C90    1.39989   1_655     S
H75   C74    0.93016       .     S
C74   H75    0.93016       .     S
C92   C74    1.37665       .     S
C74   C92    1.37665       .     S
H77   C76    0.92966       .     S
C76   H77    0.92966       .     S
C94   C76    1.37458       .     S
C76   C94    1.37458       .     S
H79   C78    0.93035       .     S
C78   H79    0.93035       .     S
C96   C78    1.38683       .     S
C78   C96    1.38683       .     S
H81   C80    0.93005       .     S
C80   H81    0.93005       .     S
H83   C82    0.92981       .     S
C82   H83    0.92981       .     S
C84   C82    1.35354       .     S
C82   C84    1.35354       .     S
C90   C82    1.37003       .     S
C82   C90    1.37003       .     S
H85   C84    0.92988   1_545     S
C84   H85    0.92988   1_565     S
H87   C86    0.92958       .     S
C86   H87    0.92958       .     S
C100  C86    1.38137       .     S
C86   C100   1.38137       .     S
H89   C88    0.93008       .     S
C88   H89    0.93008       .     S
C92   C88    1.37618       .     S
C88   C92    1.37618       .     S
C96   C88    1.34139       .     S
C88   C96    1.34139       .     S
H91   C90    0.92989       .     S
C90   H91    0.92989       .     S
H93   C92    0.92969       .     S
C92   H93    0.92969       .     S
H95   C94    0.92947       .     S
C94   H95    0.92947       .     S
C98   C94    1.36358       .     S
C94   C98    1.36358       .     S
H97   C96    0.92944       .     S
C96   H97    0.92944       .     S
H99   C98    0.93018       .     S
C98   H99    0.93018       .     S
C100  C98    1.34764       .     S
C98   C100   1.34764       .     S
H101  C100   0.93024       .     S
C100  H101   0.93024       .     S
