data_I
_chemical_name_common  '/data/user2/wty/HOF/MOFDiff/mofdiff/data/test/313-h4bptc-bpe'
_cell_length_a 17.85600
_cell_length_b 17.85600
_cell_length_c 12.78700
_cell_angle_alpha 90.00000
_cell_angle_beta  90.00000
_cell_angle_gamma 90.00000
_space_group_name_H-M_alt      'P 1'


loop_
_space_group_symop_operation_xyz
  'x, y, z' 

loop_
_atom_site_label
_atom_site_fract_x
_atom_site_fract_y
_atom_site_fract_z
_atom_site_type_symbol
O0      0.5878   0.1854   0.7377     O
H1      0.5724   0.1605   0.6813     H
C2      0.7073     0.25      0.0     C
O3      0.4825   0.2115   0.8109     O
C4      0.6668   0.2306   0.9118     C
H5      0.6932   0.2171   0.8501     H
C6      0.5903     0.23   0.9098     C
C7      0.5479     0.25      0.0     C
H8      0.4947     0.25      0.0     H
C9      0.5505   0.2104   0.8134     C
O10     0.9122   0.3146   0.7377     O
H11     0.9276   0.3395   0.6813     H
C12     0.7927     0.25      0.0     C
O13     0.0175   0.2885   0.8109     O
C14     0.8332   0.2694   0.9118     C
H15     0.8068   0.2829   0.8501     H
C16     0.9097     0.27   0.9098     C
C17     0.9521     0.25      0.0     C
H18     0.0053     0.25      0.0     H
C19     0.9495   0.2896   0.8134     C
O20     0.5878   0.3146   0.2623     O
H21     0.5724   0.3395   0.3187     H
O22     0.4825   0.2885   0.1891     O
C23     0.6668   0.2694   0.0882     C
H24     0.6932   0.2829   0.1499     H
C25     0.5903     0.27   0.0902     C
C26     0.5505   0.2896   0.1866     C
O27     0.9122   0.1854   0.2623     O
H28     0.9276   0.1605   0.3187     H
O29     0.0175   0.2115   0.1891     O
C30     0.8332   0.2306   0.0882     C
H31     0.8068   0.2171   0.1499     H
C32     0.9097     0.23   0.0902     C
C33     0.9495   0.2104   0.1866     C
N34     0.4961   0.1407   0.5827     N
C35     0.5381   0.1417   0.5051     C
H36     0.5882   0.1581   0.5149     H
C37     0.5177   0.1212   0.4095     C
H38     0.5536    0.122   0.3547     H
C39     0.4529   0.1011   0.3901     C
C40     0.4018   0.1072   0.4729     C
H41      0.351   0.0938   0.4613     H
C42      0.423   0.1323   0.5711     C
H43     0.3881   0.1424   0.6253     H
C44     0.4259   0.0566   0.2847     C
H45     0.4414   0.0037   0.2923     H
H46     0.3704   0.0572   0.2837     H
N47     0.3593   0.0039   0.9173     N
C48     0.3583   0.9619   0.9949     C
H49     0.3419   0.9118   0.9851     H
C50     0.3788   0.9823   0.0905     C
H51      0.378   0.9464   0.1453     H
C52     0.3989   0.0471   0.1099     C
C53     0.3928   0.0982   0.0271     C
H54     0.4062    0.149   0.0387     H
C55     0.3677    0.077   0.9289     C
H56     0.3576   0.1119   0.8747     H
C57     0.4434   0.0741   0.2153     C
H58     0.4963   0.0586   0.2077     H
H59     0.4428   0.1296   0.2163     H
loop_
_geom_bond_atom_site_label_1
_geom_bond_atom_site_label_2
_geom_bond_distance
_geom_bond_site_symmetry_2
_ccdc_geom_bond_type
H1    N34    1.88965       .     S
N34   H1     1.88965       .     S
O0    H1     0.89073       .     S
H1    O0     0.89073       .     S
O0    C9     1.25692       .     S
C9    O0     1.25692       .     S
C2    C4     1.38381   1_554     S
C4    C2     1.38381   1_556     S
C2    C12    1.52490       .     S
C12   C2     1.52490       .     S
C2    C23    1.38381       .     S
C23   C2     1.38381       .     S
O3    C9     1.21479       .     S
C9    O3     1.21479       .     S
C4    H5     0.95015       .     S
H5    C4     0.95015       .     S
C4    C6     1.36627       .     S
C6    C4     1.36627       .     S
C6    C7     1.42514   1_556     S
C7    C6     1.42514   1_554     S
C6    C9     1.46527       .     S
C9    C6     1.46527       .     S
C7    H8     0.94994       .     S
H8    C7     0.94994       .     S
C7    C25    1.42514       .     S
C25   C7     1.42514       .     S
O10   H11    0.89073       .     S
H11   O10    0.89073       .     S
O10   C19    1.25692       .     S
C19   O10    1.25692       .     S
C12   C14    1.38381   1_554     S
C14   C12    1.38381   1_556     S
C12   C30    1.38381       .     S
C30   C12    1.38381       .     S
O13   C19    1.21479   1_455     S
C19   O13    1.21479   1_655     S
C14   H15    0.95015       .     S
H15   C14    0.95015       .     S
C14   C16    1.36626       .     S
C16   C14    1.36626       .     S
C16   C17    1.42514   1_556     S
C17   C16    1.42514   1_554     S
C16   C19    1.46527       .     S
C19   C16    1.46527       .     S
C17   H18    0.94994   1_655     S
H18   C17    0.94994   1_455     S
C17   C32    1.42514       .     S
C32   C17    1.42514       .     S
O20   H21    0.89073       .     S
H21   O20    0.89073       .     S
O20   C26    1.25692       .     S
C26   O20    1.25692       .     S
O22   C26    1.21479       .     S
C26   O22    1.21479       .     S
C23   H24    0.95015       .     S
H24   C23    0.95015       .     S
C23   C25    1.36627       .     S
C25   C23    1.36627       .     S
C25   C26    1.46527       .     S
C26   C25    1.46527       .     S
O27   H28    0.89073       .     S
H28   O27    0.89073       .     S
O27   C33    1.25692       .     S
C33   O27    1.25692       .     S
O29   C33    1.21479   1_455     S
C33   O29    1.21479   1_655     S
C30   H31    0.95015       .     S
H31   C30    0.95015       .     S
C30   C32    1.36626       .     S
C32   C30    1.36626       .     S
C32   C33    1.46527       .     S
C33   C32    1.46527       .     S
N34   C35    1.24393       .     S
C35   N34    1.24393       .     S
N34   C42    1.32221       .     S
C42   N34    1.32221       .     S
C35   H36    0.94960       .     S
H36   C35    0.94960       .     S
C35   C37    1.32704       .     S
C37   C35    1.32704       .     S
C37   H38    0.94981       .     S
H38   C37    0.94981       .     S
C37   C39    1.23659       .     S
C39   C37    1.23659       .     S
C39   C40    1.40192       .     S
C40   C39    1.40192       .     S
C39   C44    1.63714       .     S
C44   C39    1.63714       .     S
C40   H41    0.94977       .     S
H41   C40    0.94977       .     S
C40   C42    1.38597       .     S
C42   C40    1.38597       .     S
C42   H43    0.94931       .     S
H43   C42    0.94931       .     S
C44   H45    0.98908       .     S
H45   C44    0.98908       .     S
C44   H46    0.99115       .     S
H46   C44    0.99115       .     S
C44   C57    0.99136       .     S
C57   C44    0.99136       .     S
N47   C48    1.24392   1_545     S
C48   N47    1.24393   1_565     S
N47   C55    1.32221       .     S
C55   N47    1.32221       .     S
C48   H49    0.94960       .     S
H49   C48    0.94960       .     S
C48   C50    1.32704   1_556     S
C50   C48    1.32704   1_554     S
C50   H51    0.94981       .     S
H51   C50    0.94981       .     S
C50   C52    1.23659   1_565     S
C52   C50    1.23659   1_545     S
C52   C53    1.40192       .     S
C53   C52    1.40192       .     S
C52   C57    1.63714       .     S
C57   C52    1.63714       .     S
C53   H54    0.94977       .     S
H54   C53    0.94977       .     S
C53   C55    1.38597   1_554     S
C55   C53    1.38597   1_556     S
C55   H56    0.94931       .     S
H56   C55    0.94931       .     S
C57   H58    0.98908       .     S
H58   C57    0.98908       .     S
C57   H59    0.99115       .     S
H59   C57    0.99115       .     S
N34   H1     1.88965       .     S
H1    N34    1.88965       .     S
H1    O0     0.89073       .     S
O0    H1     0.89073       .     S
C9    O0     1.25692       .     S
O0    C9     1.25692       .     S
C4    C2     1.38381   1_556     S
C2    C4     1.38381   1_554     S
C12   C2     1.52490       .     S
C2    C12    1.52490       .     S
C23   C2     1.38381       .     S
C2    C23    1.38381       .     S
C9    O3     1.21479       .     S
O3    C9     1.21479       .     S
H5    C4     0.95015       .     S
C4    H5     0.95015       .     S
C6    C4     1.36627       .     S
C4    C6     1.36627       .     S
C7    C6     1.42514   1_554     S
C6    C7     1.42514   1_556     S
C9    C6     1.46527       .     S
C6    C9     1.46527       .     S
H8    C7     0.94994       .     S
C7    H8     0.94994       .     S
C25   C7     1.42514       .     S
C7    C25    1.42514       .     S
H11   O10    0.89073       .     S
O10   H11    0.89073       .     S
C19   O10    1.25692       .     S
O10   C19    1.25692       .     S
C14   C12    1.38381   1_556     S
C12   C14    1.38381   1_554     S
C30   C12    1.38381       .     S
C12   C30    1.38381       .     S
C19   O13    1.21479   1_655     S
O13   C19    1.21479   1_455     S
H15   C14    0.95015       .     S
C14   H15    0.95015       .     S
C16   C14    1.36626       .     S
C14   C16    1.36626       .     S
C17   C16    1.42514   1_554     S
C16   C17    1.42514   1_556     S
C19   C16    1.46527       .     S
C16   C19    1.46527       .     S
H18   C17    0.94994   1_455     S
C17   H18    0.94994   1_655     S
C32   C17    1.42514       .     S
C17   C32    1.42514       .     S
H21   O20    0.89073       .     S
O20   H21    0.89073       .     S
C26   O20    1.25692       .     S
O20   C26    1.25692       .     S
C26   O22    1.21479       .     S
O22   C26    1.21479       .     S
H24   C23    0.95015       .     S
C23   H24    0.95015       .     S
C25   C23    1.36627       .     S
C23   C25    1.36627       .     S
C26   C25    1.46527       .     S
C25   C26    1.46527       .     S
H28   O27    0.89073       .     S
O27   H28    0.89073       .     S
C33   O27    1.25692       .     S
O27   C33    1.25692       .     S
C33   O29    1.21479   1_655     S
O29   C33    1.21479   1_455     S
H31   C30    0.95015       .     S
C30   H31    0.95015       .     S
C32   C30    1.36626       .     S
C30   C32    1.36626       .     S
C33   C32    1.46527       .     S
C32   C33    1.46527       .     S
C35   N34    1.24393       .     S
N34   C35    1.24393       .     S
C42   N34    1.32221       .     S
N34   C42    1.32221       .     S
H36   C35    0.94960       .     S
C35   H36    0.94960       .     S
C37   C35    1.32704       .     S
C35   C37    1.32704       .     S
H38   C37    0.94981       .     S
C37   H38    0.94981       .     S
C39   C37    1.23659       .     S
C37   C39    1.23659       .     S
C40   C39    1.40192       .     S
C39   C40    1.40192       .     S
C44   C39    1.63714       .     S
C39   C44    1.63714       .     S
H41   C40    0.94977       .     S
C40   H41    0.94977       .     S
C42   C40    1.38597       .     S
C40   C42    1.38597       .     S
H43   C42    0.94931       .     S
C42   H43    0.94931       .     S
H45   C44    0.98908       .     S
C44   H45    0.98908       .     S
H46   C44    0.99115       .     S
C44   H46    0.99115       .     S
C57   C44    0.99136       .     S
C44   C57    0.99136       .     S
C48   N47    1.24393   1_565     S
N47   C48    1.24392   1_545     S
C55   N47    1.32221       .     S
N47   C55    1.32221       .     S
H49   C48    0.94960       .     S
C48   H49    0.94960       .     S
C50   C48    1.32704   1_554     S
C48   C50    1.32704   1_556     S
H51   C50    0.94981       .     S
C50   H51    0.94981       .     S
C52   C50    1.23659   1_545     S
C50   C52    1.23659   1_565     S
C53   C52    1.40192       .     S
C52   C53    1.40192       .     S
C57   C52    1.63714       .     S
C52   C57    1.63714       .     S
H54   C53    0.94977       .     S
C53   H54    0.94977       .     S
C55   C53    1.38597   1_556     S
C53   C55    1.38597   1_554     S
H56   C55    0.94931       .     S
C55   H56    0.94931       .     S
H58   C57    0.98908       .     S
C57   H58    0.98908       .     S
H59   C57    0.99115       .     S
C57   H59    0.99115       .     S
