data_I
_chemical_name_common  '/data/user2/wty/HOF/MOFDiff/mofdiff/data/test/314-4'
_cell_length_a 11.31350
_cell_length_b 11.31350
_cell_length_c 36.70000
_cell_angle_alpha 90.00000
_cell_angle_beta  90.00000
_cell_angle_gamma 120.00000
_space_group_name_H-M_alt      'P 1'


loop_
_space_group_symop_operation_xyz
  'x, y, z' 

loop_
_atom_site_label
_atom_site_fract_x
_atom_site_fract_y
_atom_site_fract_z
_atom_site_type_symbol
Cl0    0.04726   0.3333   0.0833    Cl
O1      0.4243   0.3379  0.02087     O
N2      0.2522    0.337  0.05086     N
N3      0.4315   0.3333   0.0833     N
C4      0.2003   0.3333   0.0833     C
C5      0.3685   0.3361  0.05315     C
C6      0.5479   0.3355   0.0215     C
C7      0.6689   0.4579  0.02133     C
H8      0.6704   0.5409   0.0211     H
Cl9     0.6667  0.71396   0.0833    Cl
O10     0.6621   0.0864  0.02087     O
N11      0.663   0.9152  0.05086     N
N12     0.6667   0.0982   0.0833     N
C13     0.6667    0.867   0.0833     C
C14     0.6639   0.0324  0.05315     C
C15     0.6645   0.2124   0.0215     C
C16     0.5421    0.211  0.02133     C
H17     0.4591   0.1295   0.0211     H
Cl18   0.28604  0.95274   0.0833    Cl
O19     0.9136   0.5757  0.02087     O
N20     0.0848   0.7478  0.05086     N
N21     0.9018   0.5685   0.0833     N
C22      0.133   0.7997   0.0833     C
C23     0.9676   0.6315  0.05315     C
C24     0.7876   0.4521   0.0215     C
C25      0.789   0.3311  0.02133     C
H26     0.8705   0.3296   0.0211     H
O27    0.41973   0.3288   0.1458     O
N28     0.2485   0.3297  0.11581     N
C29     0.3657   0.3306  0.11352     C
C30     0.5457   0.3312  0.14517     C
C31     0.5443   0.2088  0.14534     C
H32     0.4628   0.1258   0.1456     H
O33     0.6712  0.09097   0.1458     O
N34     0.6703   0.9189  0.11581     N
C35     0.6694   0.0352  0.11352     C
C36     0.6688   0.2146  0.14517     C
C37     0.7912   0.3356  0.14534     C
H38     0.8742   0.3371   0.1456     H
O39    0.90903  0.58027   0.1458     O
N40     0.0811   0.7515  0.11581     N
C41     0.9648   0.6343  0.11352     C
C42     0.7854   0.4543  0.14517     C
C43     0.6644   0.4557  0.14534     C
H44     0.6629   0.5372   0.1456     H
loop_
_geom_bond_atom_site_label_1
_geom_bond_atom_site_label_2
_geom_bond_distance
_geom_bond_site_symmetry_2
_ccdc_geom_bond_type
Cl0   C4     1.73142       .     S
C4    Cl0    1.73142       .     S
O1    C5     1.33774       .     S
C5    O1     1.33774       .     S
O1    C6     1.41231       .     S
C6    O1     1.41231       .     S
N2    C4     1.31884       .     S
C4    N2     1.31884       .     S
N2    C5     1.32355       .     S
C5    N2     1.32355       .     S
N3    C5     1.32512       .     S
C5    N3     1.32512       .     S
N3    C29    1.32756       .     S
C29   N3     1.32756       .     S
C4    N28    1.32089       .     S
N28   C4     1.32089       .     S
C6    C7     1.37694       .     S
C7    C6     1.37694       .     S
C6    C16    1.37691       .     S
C16   C6     1.37691       .     S
C7    H8     0.93069       .     S
H8    C7     0.93069       .     S
C7    C24    1.37691       .     S
C24   C7     1.37691       .     S
Cl9   C13    1.73142       .     S
C13   Cl9    1.73142       .     S
O10   C14    1.33774       .     S
C14   O10    1.33774       .     S
O10   C15    1.41231       .     S
C15   O10    1.41231       .     S
N11   C13    1.31884       .     S
C13   N11    1.31884       .     S
N11   C14    1.32355   1_565     S
C14   N11    1.32355   1_545     S
N12   C14    1.32512       .     S
C14   N12    1.32512       .     S
N12   C35    1.32694       .     S
C35   N12    1.32694       .     S
C13   N34    1.32138       .     S
N34   C13    1.32138       .     S
C15   C16    1.37694       .     S
C16   C15    1.37694       .     S
C15   C25    1.37691       .     S
C25   C15    1.37691       .     S
C16   H17    0.93069       .     S
H17   C16    0.93069       .     S
Cl18  C22    1.73142       .     S
C22   Cl18   1.73142       .     S
O19   C23    1.33774       .     S
C23   O19    1.33774       .     S
O19   C24    1.41231       .     S
C24   O19    1.41231       .     S
N20   C22    1.31884       .     S
C22   N20    1.31884       .     S
N20   C23    1.32355   1_455     S
C23   N20    1.32355   1_655     S
N21   C23    1.32512       .     S
C23   N21    1.32512       .     S
N21   C41    1.32727       .     S
C41   N21    1.32727       .     S
C22   N40    1.32116       .     S
N40   C22    1.32116       .     S
C24   C25    1.37694       .     S
C25   C24    1.37694       .     S
C25   H26    0.93069       .     S
H26   C25    0.93069       .     S
O27   C29    1.33790       .     S
C29   O27    1.33790       .     S
O27   C30    1.41197       .     S
C30   O27    1.41197       .     S
N28   C29    1.32355       .     S
C29   N28    1.32355       .     S
C30   C31    1.37694       .     S
C31   C30    1.37694       .     S
C30   C43    1.37691       .     S
C43   C30    1.37691       .     S
C31   H32    0.93070       .     S
H32   C31    0.93070       .     S
C31   C36    1.37691       .     S
C36   C31    1.37691       .     S
O33   C35    1.33758       .     S
C35   O33    1.33758       .     S
O33   C36    1.41265       .     S
C36   O33    1.41265       .     S
N34   C35    1.32355   1_565     S
C35   N34    1.32355   1_545     S
C36   C37    1.37694       .     S
C37   C36    1.37694       .     S
C37   H38    0.93070       .     S
H38   C37    0.93070       .     S
C37   C42    1.37691       .     S
C42   C37    1.37691       .     S
O39   C41    1.33773       .     S
C41   O39    1.33773       .     S
O39   C42    1.41230       .     S
C42   O39    1.41230       .     S
N40   C41    1.32355   1_455     S
C41   N40    1.32355   1_655     S
C42   C43    1.37694       .     S
C43   C42    1.37694       .     S
C43   H44    0.93070       .     S
H44   C43    0.93070       .     S
C4    Cl0    1.73142       .     S
Cl0   C4     1.73142       .     S
C5    O1     1.33774       .     S
O1    C5     1.33774       .     S
C6    O1     1.41231       .     S
O1    C6     1.41231       .     S
C4    N2     1.31884       .     S
N2    C4     1.31884       .     S
C5    N2     1.32355       .     S
N2    C5     1.32355       .     S
C5    N3     1.32512       .     S
N3    C5     1.32512       .     S
C29   N3     1.32756       .     S
N3    C29    1.32756       .     S
N28   C4     1.32089       .     S
C4    N28    1.32089       .     S
C7    C6     1.37694       .     S
C6    C7     1.37694       .     S
C16   C6     1.37691       .     S
C6    C16    1.37691       .     S
H8    C7     0.93069       .     S
C7    H8     0.93069       .     S
C24   C7     1.37691       .     S
C7    C24    1.37691       .     S
C13   Cl9    1.73142       .     S
Cl9   C13    1.73142       .     S
C14   O10    1.33774       .     S
O10   C14    1.33774       .     S
C15   O10    1.41231       .     S
O10   C15    1.41231       .     S
C13   N11    1.31884       .     S
N11   C13    1.31884       .     S
C14   N11    1.32355   1_545     S
N11   C14    1.32355   1_565     S
C14   N12    1.32512       .     S
N12   C14    1.32512       .     S
C35   N12    1.32694       .     S
N12   C35    1.32694       .     S
N34   C13    1.32138       .     S
C13   N34    1.32138       .     S
C16   C15    1.37694       .     S
C15   C16    1.37694       .     S
C25   C15    1.37691       .     S
C15   C25    1.37691       .     S
H17   C16    0.93069       .     S
C16   H17    0.93069       .     S
C22   Cl18   1.73142       .     S
Cl18  C22    1.73142       .     S
C23   O19    1.33774       .     S
O19   C23    1.33774       .     S
C24   O19    1.41231       .     S
O19   C24    1.41231       .     S
C22   N20    1.31884       .     S
N20   C22    1.31884       .     S
C23   N20    1.32355   1_655     S
N20   C23    1.32355   1_455     S
C23   N21    1.32512       .     S
N21   C23    1.32512       .     S
C41   N21    1.32727       .     S
N21   C41    1.32727       .     S
N40   C22    1.32116       .     S
C22   N40    1.32116       .     S
C25   C24    1.37694       .     S
C24   C25    1.37694       .     S
H26   C25    0.93069       .     S
C25   H26    0.93069       .     S
C29   O27    1.33790       .     S
O27   C29    1.33790       .     S
C30   O27    1.41197       .     S
O27   C30    1.41197       .     S
C29   N28    1.32355       .     S
N28   C29    1.32355       .     S
C31   C30    1.37694       .     S
C30   C31    1.37694       .     S
C43   C30    1.37691       .     S
C30   C43    1.37691       .     S
H32   C31    0.93070       .     S
C31   H32    0.93070       .     S
C36   C31    1.37691       .     S
C31   C36    1.37691       .     S
C35   O33    1.33758       .     S
O33   C35    1.33758       .     S
C36   O33    1.41265       .     S
O33   C36    1.41265       .     S
C35   N34    1.32355   1_545     S
N34   C35    1.32355   1_565     S
C37   C36    1.37694       .     S
C36   C37    1.37694       .     S
H38   C37    0.93070       .     S
C37   H38    0.93070       .     S
C42   C37    1.37691       .     S
C37   C42    1.37691       .     S
C41   O39    1.33773       .     S
O39   C41    1.33773       .     S
C42   O39    1.41230       .     S
O39   C42    1.41230       .     S
C41   N40    1.32355   1_655     S
N40   C41    1.32355   1_455     S
C43   C42    1.37694       .     S
C42   C43    1.37694       .     S
H44   C43    0.93070       .     S
C43   H44    0.93070       .     S
