data_I
_chemical_name_common  '/data/user2/wty/HOF/MOFDiff/mofdiff/data/test/314-4-br'
_cell_length_a 23.48300
_cell_length_b 16.69300
_cell_length_c 13.01100
_cell_angle_alpha 90.00000
_cell_angle_beta  117.10000
_cell_angle_gamma 90.00000
_space_group_name_H-M_alt      'P 1'


loop_
_space_group_symop_operation_xyz
  'x, y, z' 

loop_
_atom_site_label
_atom_site_fract_x
_atom_site_fract_y
_atom_site_fract_z
_atom_site_type_symbol
Cl0    0.05343      0.0   0.4471    Cl
Cl1    0.59872      0.0  0.17241    Cl
Cl2    0.22168      0.0  0.52419    Cl
O3     0.18032  0.13742  0.80716     O
O4      0.4011  0.13758  0.08577     O
O5     0.23909  0.13738  0.21262     O
N6     0.11993  0.07111   0.6431     N
N7      0.1861      0.0   0.8147     N
N8     0.39566      0.0   0.0833     N
N9     0.49214  0.07123   0.1281     N
N10    0.24384      0.0   0.2092     N
N11    0.23034  0.07157   0.3558     N
C12    0.22725  0.13576   0.9236     C
C13    0.29041  0.13702   0.9465     C
H14     0.3023   0.1384   0.8858     H
C15    0.33576  0.13627   0.0599     C
C16    0.31994  0.13571   0.1497     C
H17     0.3519   0.1355   0.2279     H
C18    0.25608  0.13547   0.1214     C
C19    0.20828  0.13504   0.0093     C
H20     0.1644   0.1343    0.992     H
C21      0.103      0.0    0.594     C
C22    0.16136  0.06587   0.7537     C
C23    0.43007  0.06613      0.1     C
C24    0.51819      0.0   0.1395     C
C25    0.23786  0.06576   0.2602     C
C26     0.2281      0.0   0.3967     C
O27    0.18032  0.86258  0.80716     O
O28     0.4011  0.86242  0.08577     O
O29    0.23909  0.86262  0.21262     O
N30    0.11993  0.92889   0.6431     N
N31    0.49214  0.92877   0.1281     N
N32    0.23034  0.92843   0.3558     N
C33    0.22725  0.86424   0.9236     C
C34    0.29041  0.86298   0.9465     C
H35     0.3023   0.8616   0.8858     H
C36    0.33576  0.86373   0.0599     C
C37    0.31994  0.86429   0.1497     C
H38     0.3519   0.8645   0.2279     H
C39    0.25608  0.86453   0.1214     C
C40    0.20828  0.86496   0.0093     C
H41     0.1644   0.8657    0.992     H
C42    0.16136  0.93413   0.7537     C
C43    0.43007  0.93387      0.1     C
C44    0.23786  0.93424   0.2602     C
N45    0.09082  0.24264   0.3401     N
C46    0.14045   0.2673   0.5577     C
H47     0.1642   0.2402    0.632     H
H48     0.0998   0.2873   0.5515     H
H49     0.1658   0.3123   0.5524     H
C50    0.12754  0.20913    0.461     C
H51     0.1033   0.1632   0.4693     H
H52      0.169   0.1883   0.4699     H
C53    0.98166   0.2044   0.3254     C
H54     0.9397   0.2272   0.3073     H
H55     0.0011   0.1828    0.404     H
H56     0.9766   0.1614   0.2706     H
C57    0.02445   0.2694   0.3164     C
H58     0.0031   0.2924   0.2378     H
H59     0.0286   0.3126   0.3714     H
C60    0.12338  0.31593   0.3231     C
H61     0.0977   0.3357   0.2433     H
H62     0.1235   0.3584   0.3763     H
C63    0.19126   0.3031   0.3428     C
H64     0.2083   0.3534   0.3295     H
H65     0.1918   0.2621   0.2893     H
H66     0.2177   0.2853   0.4225     H
C67    0.08778   0.1759   0.2585     C
H68     0.1319   0.1576   0.2799     H
H69     0.0642   0.1301   0.2692     H
C70      0.056    0.199   0.1325     C
H71     0.0558   0.1529   0.0857     H
H72     0.0797   0.2432   0.1202     H
H73     0.0119    0.216   0.1097     H
O74    0.09948      0.0   0.1415     O
H75     0.0604      0.0   0.1245     H
H76     0.0963      0.0   0.0746     H
loop_
_geom_bond_atom_site_label_1
_geom_bond_atom_site_label_2
_geom_bond_distance
_geom_bond_site_symmetry_2
_ccdc_geom_bond_type
Cl0   C21    1.72658       .     S
C21   Cl0    1.72658       .     S
Cl1   C24    1.73833       .     S
C24   Cl1    1.73833       .     S
Cl2   C26    1.73266       .     S
C26   Cl2    1.73266       .     S
O3    C12    1.41044       .     S
C12   O3     1.41044       .     S
O3    C22    1.35146       .     S
C22   O3     1.35146       .     S
O4    C15    1.41335       .     S
C15   O4     1.41335       .     S
O4    C23    1.34347       .     S
C23   O4     1.34347       .     S
O5    C18    1.41431       .     S
C18   O5     1.41431       .     S
O5    C25    1.35267       .     S
C25   O5     1.35267       .     S
N6    C21    1.32055       .     S
C21   N6     1.32055       .     S
N6    C22    1.32265       .     S
C22   N6     1.32265       .     S
N7    C22    1.32529       .     S
C22   N7     1.32529       .     S
N7    C42    1.32529   1_545     S
C42   N7     1.32529   1_565     S
N8    C23    1.32620       .     S
C23   N8     1.32620       .     S
N8    C43    1.32620   1_545     S
C43   N8     1.32620   1_565     S
N9    C23    1.33415       .     S
C23   N9     1.33415       .     S
N9    C24    1.31430       .     S
C24   N9     1.31430       .     S
N10   C25    1.32286       .     S
C25   N10    1.32286       .     S
N10   C44    1.32286   1_545     S
C44   N10    1.32286   1_565     S
N11   C25    1.33712       .     S
C25   N11    1.33712       .     S
N11   C26    1.31864       .     S
C26   N11    1.31864       .     S
C12   C13    1.37348       .     S
C13   C12    1.37348       .     S
C12   C19    1.37640   1_556     S
C19   C12    1.37640   1_554     S
C13   H14    0.95033       .     S
H14   C13    0.95033       .     S
C13   C15    1.37100   1_556     S
C15   C13    1.37100   1_554     S
C15   C16    1.37793       .     S
C16   C15    1.37793       .     S
C16   H17    0.95015       .     S
H17   C16    0.95015       .     S
C16   C18    1.37164       .     S
C18   C16    1.37164       .     S
C18   C19    1.37685       .     S
C19   C18    1.37685       .     S
C19   H20    0.94937   1_554     S
H20   C19    0.94937   1_556     S
C21   N30    1.32055   1_545     S
N30   C21    1.32055   1_565     S
C24   N31    1.31429   1_545     S
N31   C24    1.31429   1_565     S
C26   N32    1.31864   1_545     S
N32   C26    1.31864   1_565     S
O27   C33    1.41044       .     S
C33   O27    1.41044       .     S
O27   C42    1.35146       .     S
C42   O27    1.35146       .     S
O28   C36    1.41335       .     S
C36   O28    1.41335       .     S
O28   C43    1.34347       .     S
C43   O28    1.34347       .     S
O29   C39    1.41431       .     S
C39   O29    1.41431       .     S
O29   C44    1.35267       .     S
C44   O29    1.35267       .     S
N30   C42    1.32265       .     S
C42   N30    1.32265       .     S
N31   C43    1.33415       .     S
C43   N31    1.33415       .     S
N32   C44    1.33712       .     S
C44   N32    1.33712       .     S
C33   C34    1.37348       .     S
C34   C33    1.37348       .     S
C33   C40    1.37640   1_556     S
C40   C33    1.37640   1_554     S
C34   H35    0.95033       .     S
H35   C34    0.95033       .     S
C34   C36    1.37100   1_556     S
C36   C34    1.37100   1_554     S
C36   C37    1.37793       .     S
C37   C36    1.37793       .     S
C37   H38    0.95015       .     S
H38   C37    0.95015       .     S
C37   C39    1.37164       .     S
C39   C37    1.37164       .     S
C39   C40    1.37685       .     S
C40   C39    1.37685       .     S
C40   H41    0.94937   1_554     S
H41   C40    0.94937   1_556     S
N45   C50    1.51495       .     S
C50   N45    1.51495       .     S
N45   C57    1.51192       .     S
C57   N45    1.51192       .     S
N45   C60    1.51143       .     S
C60   N45    1.51143       .     S
N45   C67    1.51804       .     S
C67   N45    1.51804       .     S
C46   H47    0.97930       .     S
H47   C46    0.97930       .     S
C46   H48    0.97931       .     S
H48   C46    0.97931       .     S
C46   H49    0.98021       .     S
H49   C46    0.98021       .     S
C46   C50    1.50674       .     S
C50   C46    1.50674       .     S
C50   H51    0.98971       .     S
H51   C50    0.98971       .     S
C50   H52    0.98970       .     S
H52   C50    0.98970       .     S
C53   H54    0.97970       .     S
H54   C53    0.97970       .     S
C53   H55    0.97924   1_655     S
H55   C53    0.97924   1_455     S
C53   H56    0.98007       .     S
H56   C53    0.98007       .     S
C53   C57    1.51919   1_655     S
C57   C53    1.51919   1_455     S
C57   H58    0.98867       .     S
H58   C57    0.98867       .     S
C57   H59    0.98898       .     S
H59   C57    0.98898       .     S
C60   H61    0.99002       .     S
H61   C60    0.99002       .     S
C60   H62    0.98993       .     S
H62   C60    0.98993       .     S
C60   C63    1.51005       .     S
C63   C60    1.51005       .     S
C63   H64    0.97887       .     S
H64   C63    0.97887       .     S
C63   H65    0.98039       .     S
H65   C63    0.98039       .     S
C63   H66    0.98108       .     S
H66   C63    0.98108       .     S
C67   H68    0.99068       .     S
H68   C67    0.99068       .     S
C67   H69    0.99033       .     S
H69   C67    0.99033       .     S
C67   C70    1.50949       .     S
C70   C67    1.50949       .     S
C70   H71    0.98000       .     S
H71   C70    0.98000       .     S
C70   H72    0.98025       .     S
H72   C70    0.98025       .     S
C70   H73    0.98036       .     S
H73   C70    0.98036       .     S
O74   H75    0.84035       .     S
H75   O74    0.84035       .     S
O74   H76    0.83906       .     S
H76   O74    0.83906       .     S
C21   Cl0    1.72658       .     S
Cl0   C21    1.72658       .     S
C24   Cl1    1.73833       .     S
Cl1   C24    1.73833       .     S
C26   Cl2    1.73266       .     S
Cl2   C26    1.73266       .     S
C12   O3     1.41044       .     S
O3    C12    1.41044       .     S
C22   O3     1.35146       .     S
O3    C22    1.35146       .     S
C15   O4     1.41335       .     S
O4    C15    1.41335       .     S
C23   O4     1.34347       .     S
O4    C23    1.34347       .     S
C18   O5     1.41431       .     S
O5    C18    1.41431       .     S
C25   O5     1.35267       .     S
O5    C25    1.35267       .     S
C21   N6     1.32055       .     S
N6    C21    1.32055       .     S
C22   N6     1.32265       .     S
N6    C22    1.32265       .     S
C22   N7     1.32529       .     S
N7    C22    1.32529       .     S
C42   N7     1.32529   1_565     S
N7    C42    1.32529   1_545     S
C23   N8     1.32620       .     S
N8    C23    1.32620       .     S
C43   N8     1.32620   1_565     S
N8    C43    1.32620   1_545     S
C23   N9     1.33415       .     S
N9    C23    1.33415       .     S
C24   N9     1.31430       .     S
N9    C24    1.31430       .     S
C25   N10    1.32286       .     S
N10   C25    1.32286       .     S
C44   N10    1.32286   1_565     S
N10   C44    1.32286   1_545     S
C25   N11    1.33712       .     S
N11   C25    1.33712       .     S
C26   N11    1.31864       .     S
N11   C26    1.31864       .     S
C13   C12    1.37348       .     S
C12   C13    1.37348       .     S
C19   C12    1.37640   1_554     S
C12   C19    1.37640   1_556     S
H14   C13    0.95033       .     S
C13   H14    0.95033       .     S
C15   C13    1.37100   1_554     S
C13   C15    1.37100   1_556     S
C16   C15    1.37793       .     S
C15   C16    1.37793       .     S
H17   C16    0.95015       .     S
C16   H17    0.95015       .     S
C18   C16    1.37164       .     S
C16   C18    1.37164       .     S
C19   C18    1.37685       .     S
C18   C19    1.37685       .     S
H20   C19    0.94937   1_556     S
C19   H20    0.94937   1_554     S
N30   C21    1.32055   1_565     S
C21   N30    1.32055   1_545     S
N31   C24    1.31429   1_565     S
C24   N31    1.31429   1_545     S
N32   C26    1.31864   1_565     S
C26   N32    1.31864   1_545     S
C33   O27    1.41044       .     S
O27   C33    1.41044       .     S
C42   O27    1.35146       .     S
O27   C42    1.35146       .     S
C36   O28    1.41335       .     S
O28   C36    1.41335       .     S
C43   O28    1.34347       .     S
O28   C43    1.34347       .     S
C39   O29    1.41431       .     S
O29   C39    1.41431       .     S
C44   O29    1.35267       .     S
O29   C44    1.35267       .     S
C42   N30    1.32265       .     S
N30   C42    1.32265       .     S
C43   N31    1.33415       .     S
N31   C43    1.33415       .     S
C44   N32    1.33712       .     S
N32   C44    1.33712       .     S
C34   C33    1.37348       .     S
C33   C34    1.37348       .     S
C40   C33    1.37640   1_554     S
C33   C40    1.37640   1_556     S
H35   C34    0.95033       .     S
C34   H35    0.95033       .     S
C36   C34    1.37100   1_554     S
C34   C36    1.37100   1_556     S
C37   C36    1.37793       .     S
C36   C37    1.37793       .     S
H38   C37    0.95015       .     S
C37   H38    0.95015       .     S
C39   C37    1.37164       .     S
C37   C39    1.37164       .     S
C40   C39    1.37685       .     S
C39   C40    1.37685       .     S
H41   C40    0.94937   1_556     S
C40   H41    0.94937   1_554     S
C50   N45    1.51495       .     S
N45   C50    1.51495       .     S
C57   N45    1.51192       .     S
N45   C57    1.51192       .     S
C60   N45    1.51143       .     S
N45   C60    1.51143       .     S
C67   N45    1.51804       .     S
N45   C67    1.51804       .     S
H47   C46    0.97930       .     S
C46   H47    0.97930       .     S
H48   C46    0.97931       .     S
C46   H48    0.97931       .     S
H49   C46    0.98021       .     S
C46   H49    0.98021       .     S
C50   C46    1.50674       .     S
C46   C50    1.50674       .     S
H51   C50    0.98971       .     S
C50   H51    0.98971       .     S
H52   C50    0.98970       .     S
C50   H52    0.98970       .     S
H54   C53    0.97970       .     S
C53   H54    0.97970       .     S
H55   C53    0.97924   1_455     S
C53   H55    0.97924   1_655     S
H56   C53    0.98007       .     S
C53   H56    0.98007       .     S
C57   C53    1.51919   1_455     S
C53   C57    1.51919   1_655     S
H58   C57    0.98867       .     S
C57   H58    0.98867       .     S
H59   C57    0.98898       .     S
C57   H59    0.98898       .     S
H61   C60    0.99002       .     S
C60   H61    0.99002       .     S
H62   C60    0.98993       .     S
C60   H62    0.98993       .     S
C63   C60    1.51005       .     S
C60   C63    1.51005       .     S
H64   C63    0.97887       .     S
C63   H64    0.97887       .     S
H65   C63    0.98039       .     S
C63   H65    0.98039       .     S
H66   C63    0.98108       .     S
C63   H66    0.98108       .     S
H68   C67    0.99068       .     S
C67   H68    0.99068       .     S
H69   C67    0.99033       .     S
C67   H69    0.99033       .     S
C70   C67    1.50949       .     S
C67   C70    1.50949       .     S
H71   C70    0.98000       .     S
C70   H71    0.98000       .     S
H72   C70    0.98025       .     S
C70   H72    0.98025       .     S
H73   C70    0.98036       .     S
C70   H73    0.98036       .     S
H75   O74    0.84035       .     S
O74   H75    0.84035       .     S
H76   O74    0.83906       .     S
O74   H76    0.83906       .     S
