data_I
_chemical_name_common  '/data/user2/wty/HOF/MOFDiff/mofdiff/data/test/314-4-cl'
_cell_length_a 20.59000
_cell_length_b 20.59000
_cell_length_c 24.97720
_cell_angle_alpha 90.00000
_cell_angle_beta  90.00000
_cell_angle_gamma 120.00000
_space_group_name_H-M_alt      'P 1'


loop_
_space_group_symop_operation_xyz
  'x, y, z' 

loop_
_atom_site_label
_atom_site_fract_x
_atom_site_fract_y
_atom_site_fract_z
_atom_site_type_symbol
Cl0    0.82508   0.1004  0.01345    Cl
O1     0.74114  0.25239  0.10505     O
O2     0.71944  0.23313  0.92259     O
N3     0.77959  0.18226  0.06124     N
N4      0.7264  0.24498  0.01407     N
N5     0.76582  0.17051  0.96654     N
C6     0.78521  0.15741  0.01399     C
C7     0.74794  0.22525  0.05794     C
C8     0.73717  0.21625  0.96997     C
C9     0.70333  0.29374  0.10446     C
C10    0.74535  0.37103  0.10461     C
H11     0.7986   0.3966   0.1048     H
C12    0.69253  0.28457  0.92292     C
C13    0.74419  0.36013  0.92275     C
H14     0.7966   0.3783   0.9225     H
Cl15    0.8996  0.72468  0.01345    Cl
O16    0.74761  0.48875  0.10505     O
O17    0.76687  0.48631  0.92259     O
N18    0.81774  0.59733  0.06124     N
N19    0.75502  0.48142  0.01407     N
N20    0.82949  0.59531  0.96654     N
C21    0.84259   0.6278  0.01399     C
C22    0.77475  0.52269  0.05794     C
C23    0.78375  0.52092  0.96997     C
C24    0.70626  0.40959  0.10446     C
C25    0.62897  0.37432  0.10461     C
H26     0.6034    0.402   0.1048     H
C27    0.71543  0.40796  0.92292     C
C28    0.63987  0.38406  0.92275     C
H29     0.6217   0.4183   0.9225     H
Cl30   0.27532  0.17492  0.01345    Cl
O31    0.51125  0.25886  0.10505     O
O32    0.51369  0.28056  0.92259     O
N33    0.40267  0.22041  0.06124     N
N34    0.51858   0.2736  0.01407     N
N35    0.40469  0.23418  0.96654     N
C36     0.3722  0.21479  0.01399     C
C37    0.47731  0.25206  0.05794     C
C38    0.47908  0.26283  0.96997     C
C39    0.59041  0.29667  0.10446     C
C40    0.62568  0.25465  0.10461     C
H41      0.598   0.2014   0.1048     H
C42    0.59204  0.30747  0.92292     C
C43    0.61594  0.25581  0.92275     C
H44     0.5817   0.2034   0.9225     H
O45    0.53942  0.09255  0.96085     O
H46     0.4996   0.0511   0.9579     H
H47     0.5537   0.0872   0.9912     H
N48    0.99403  0.35133  0.14173     N
C49    0.95721  0.33676  0.19643     C
H50     0.9121   0.2862   0.1964     H
H51     0.9924   0.3367   0.2234     H
C52     0.9343   0.3932  0.21327     C
H53     0.9793   0.4424   0.2184     H
H54     0.9062    0.377   0.2469     H
H55     0.9028   0.3968   0.1854     H
C56    0.02352  0.29785  0.13316     C
H57     0.0594   0.3055   0.1622     H
H58     0.0515   0.3107    0.099     H
C59     0.9637  0.21547  0.13181     C
H60     0.9378    0.201   0.1664     H
H61     0.9872   0.1851   0.1247     H
H62     0.9274   0.2072   0.1035     H
C63    0.93679  0.34075  0.09928     C
H64     0.8901   0.2928   0.1063     H
H65     0.9249   0.3816    0.103     H
C66    0.96063  0.33999  0.04228     C
H67     0.0082    0.386   0.0352     H
H68     0.9221   0.3371   0.0177     H
H69      0.967   0.2964   0.0369     H
C70    0.05929  0.43113   0.1376     C
H71     0.0833   0.4375   0.1022     H
H72     0.0393    0.466   0.1392     H
C73    0.11879  0.45337  0.18051     C
H74     0.0958   0.4472   0.2159     H
H75     0.1577   0.5059   0.1755     H
H76     0.1414   0.4214   0.1779     H
loop_
_geom_bond_atom_site_label_1
_geom_bond_atom_site_label_2
_geom_bond_distance
_geom_bond_site_symmetry_2
_ccdc_geom_bond_type
Cl0   C6     1.73655       .     S
C6    Cl0    1.73655       .     S
O1    C7     1.33966       .     S
C7    O1     1.33966       .     S
O1    C9     1.41209       .     S
C9    O1     1.41209       .     S
O2    C8     1.33470       .     S
C8    O2     1.33470       .     S
O2    C12    1.41976       .     S
C12   O2     1.41976       .     S
N3    C6     1.31423       .     S
C6    N3     1.31423       .     S
N3    C7     1.33859       .     S
C7    N3     1.33859       .     S
N4    C7     1.32006       .     S
C7    N4     1.32006       .     S
N4    C8     1.32045   1_554     S
C8    N4     1.32045   1_556     S
N5    C6     1.32078   1_556     S
C6    N5     1.32078   1_554     S
N5    C8     1.34084       .     S
C8    N5     1.34084       .     S
C9    C10    1.37995       .     S
C10   C9     1.37995       .     S
C9    C40    1.38463       .     S
C40   C9     1.38463       .     S
C10   H11    0.94979       .     S
H11   C10    0.94979       .     S
C10   C24    1.38463       .     S
C24   C10    1.38463       .     S
C12   C13    1.37733       .     S
C13   C12    1.37733       .     S
C12   C43    1.37976       .     S
C43   C12    1.37976       .     S
C13   H14    0.94910       .     S
H14   C13    0.94910       .     S
C13   C27    1.37976       .     S
C27   C13    1.37976       .     S
Cl15  C21    1.73655       .     S
C21   Cl15   1.73655       .     S
O16   C22    1.33966       .     S
C22   O16    1.33966       .     S
O16   C24    1.41209       .     S
C24   O16    1.41209       .     S
O17   C23    1.33470       .     S
C23   O17    1.33470       .     S
O17   C27    1.41976       .     S
C27   O17    1.41976       .     S
N18   C21    1.31423       .     S
C21   N18    1.31423       .     S
N18   C22    1.33859       .     S
C22   N18    1.33859       .     S
N19   C22    1.32006       .     S
C22   N19    1.32006       .     S
N19   C23    1.32045   1_554     S
C23   N19    1.32045   1_556     S
N20   C21    1.32078   1_556     S
C21   N20    1.32078   1_554     S
N20   C23    1.34084       .     S
C23   N20    1.34084       .     S
C24   C25    1.37995       .     S
C25   C24    1.37995       .     S
C25   H26    0.94979       .     S
H26   C25    0.94979       .     S
C25   C39    1.38463       .     S
C39   C25    1.38463       .     S
C27   C28    1.37733       .     S
C28   C27    1.37733       .     S
C28   H29    0.94910       .     S
H29   C28    0.94910       .     S
C28   C42    1.37976       .     S
C42   C28    1.37976       .     S
Cl30  C36    1.73655       .     S
C36   Cl30   1.73655       .     S
O31   C37    1.33966       .     S
C37   O31    1.33966       .     S
O31   C39    1.41208       .     S
C39   O31    1.41208       .     S
O32   C38    1.33470       .     S
C38   O32    1.33470       .     S
O32   C42    1.41976       .     S
C42   O32    1.41976       .     S
N33   C36    1.31423       .     S
C36   N33    1.31423       .     S
N33   C37    1.33859       .     S
C37   N33    1.33859       .     S
N34   C37    1.32006       .     S
C37   N34    1.32006       .     S
N34   C38    1.32045   1_554     S
C38   N34    1.32045   1_556     S
N35   C36    1.32078   1_556     S
C36   N35    1.32078   1_554     S
N35   C38    1.34084       .     S
C38   N35    1.34084       .     S
C39   C40    1.37995       .     S
C40   C39    1.37995       .     S
C40   H41    0.94979       .     S
H41   C40    0.94979       .     S
C42   C43    1.37733       .     S
C43   C42    1.37733       .     S
C43   H44    0.94910       .     S
H44   C43    0.94910       .     S
O45   H46    0.84042       .     S
H46   O45    0.84042       .     S
O45   H47    0.84001       .     S
H47   O45    0.84001       .     S
N48   C49    1.51788       .     S
C49   N48    1.51788       .     S
N48   C56    1.51515   1_655     S
C56   N48    1.51515   1_455     S
N48   C63    1.51787       .     S
C63   N48    1.51787       .     S
N48   C70    1.51924   1_655     S
C70   N48    1.51924   1_455     S
C49   H50    0.98971       .     S
H50   C49    0.98971       .     S
C49   H51    0.98978       .     S
H51   C49    0.98978       .     S
C49   C52    1.51595       .     S
C52   C49    1.51595       .     S
C52   H53    0.98108       .     S
H53   C52    0.98108       .     S
C52   H54    0.97908       .     S
H54   C52    0.97908       .     S
C52   H55    0.97919       .     S
H55   C52    0.97919       .     S
C56   H57    0.99012       .     S
H57   C56    0.99012       .     S
C56   H58    0.98867       .     S
H58   C56    0.98867       .     S
C56   C59    1.51859   1_455     S
C59   C56    1.51859   1_655     S
C59   H60    0.98015       .     S
H60   C59    0.98015       .     S
C59   H61    0.97942       .     S
H61   C59    0.97942       .     S
C59   H62    0.97998       .     S
H62   C59    0.97998       .     S
C63   H64    0.99022       .     S
H64   C63    0.99022       .     S
C63   H65    0.99093       .     S
H65   C63    0.99093       .     S
C63   C66    1.50858       .     S
C66   C63    1.50858       .     S
C66   H67    0.97990   1_655     S
H67   C66    0.97990   1_455     S
C66   H68    0.98114       .     S
H68   C66    0.98114       .     S
C66   H69    0.97904       .     S
H69   C66    0.97904       .     S
C70   H71    0.98922       .     S
H71   C70    0.98922       .     S
C70   H72    0.99096       .     S
H72   C70    0.99096       .     S
C70   C73    1.51600       .     S
C73   C70    1.51600       .     S
C73   H74    0.98053       .     S
H74   C73    0.98053       .     S
C73   H75    0.98022       .     S
H75   C73    0.98022       .     S
C73   H76    0.98017       .     S
H76   C73    0.98017       .     S
C6    Cl0    1.73655       .     S
Cl0   C6     1.73655       .     S
C7    O1     1.33966       .     S
O1    C7     1.33966       .     S
C9    O1     1.41209       .     S
O1    C9     1.41209       .     S
C8    O2     1.33470       .     S
O2    C8     1.33470       .     S
C12   O2     1.41976       .     S
O2    C12    1.41976       .     S
C6    N3     1.31423       .     S
N3    C6     1.31423       .     S
C7    N3     1.33859       .     S
N3    C7     1.33859       .     S
C7    N4     1.32006       .     S
N4    C7     1.32006       .     S
C8    N4     1.32045   1_556     S
N4    C8     1.32045   1_554     S
C6    N5     1.32078   1_554     S
N5    C6     1.32078   1_556     S
C8    N5     1.34084       .     S
N5    C8     1.34084       .     S
C10   C9     1.37995       .     S
C9    C10    1.37995       .     S
C40   C9     1.38463       .     S
C9    C40    1.38463       .     S
H11   C10    0.94979       .     S
C10   H11    0.94979       .     S
C24   C10    1.38463       .     S
C10   C24    1.38463       .     S
C13   C12    1.37733       .     S
C12   C13    1.37733       .     S
C43   C12    1.37976       .     S
C12   C43    1.37976       .     S
H14   C13    0.94910       .     S
C13   H14    0.94910       .     S
C27   C13    1.37976       .     S
C13   C27    1.37976       .     S
C21   Cl15   1.73655       .     S
Cl15  C21    1.73655       .     S
C22   O16    1.33966       .     S
O16   C22    1.33966       .     S
C24   O16    1.41209       .     S
O16   C24    1.41209       .     S
C23   O17    1.33470       .     S
O17   C23    1.33470       .     S
C27   O17    1.41976       .     S
O17   C27    1.41976       .     S
C21   N18    1.31423       .     S
N18   C21    1.31423       .     S
C22   N18    1.33859       .     S
N18   C22    1.33859       .     S
C22   N19    1.32006       .     S
N19   C22    1.32006       .     S
C23   N19    1.32045   1_556     S
N19   C23    1.32045   1_554     S
C21   N20    1.32078   1_554     S
N20   C21    1.32078   1_556     S
C23   N20    1.34084       .     S
N20   C23    1.34084       .     S
C25   C24    1.37995       .     S
C24   C25    1.37995       .     S
H26   C25    0.94979       .     S
C25   H26    0.94979       .     S
C39   C25    1.38463       .     S
C25   C39    1.38463       .     S
C28   C27    1.37733       .     S
C27   C28    1.37733       .     S
H29   C28    0.94910       .     S
C28   H29    0.94910       .     S
C42   C28    1.37976       .     S
C28   C42    1.37976       .     S
C36   Cl30   1.73655       .     S
Cl30  C36    1.73655       .     S
C37   O31    1.33966       .     S
O31   C37    1.33966       .     S
C39   O31    1.41208       .     S
O31   C39    1.41208       .     S
C38   O32    1.33470       .     S
O32   C38    1.33470       .     S
C42   O32    1.41976       .     S
O32   C42    1.41976       .     S
C36   N33    1.31423       .     S
N33   C36    1.31423       .     S
C37   N33    1.33859       .     S
N33   C37    1.33859       .     S
C37   N34    1.32006       .     S
N34   C37    1.32006       .     S
C38   N34    1.32045   1_556     S
N34   C38    1.32045   1_554     S
C36   N35    1.32078   1_554     S
N35   C36    1.32078   1_556     S
C38   N35    1.34084       .     S
N35   C38    1.34084       .     S
C40   C39    1.37995       .     S
C39   C40    1.37995       .     S
H41   C40    0.94979       .     S
C40   H41    0.94979       .     S
C43   C42    1.37733       .     S
C42   C43    1.37733       .     S
H44   C43    0.94910       .     S
C43   H44    0.94910       .     S
H46   O45    0.84042       .     S
O45   H46    0.84042       .     S
H47   O45    0.84001       .     S
O45   H47    0.84001       .     S
C49   N48    1.51788       .     S
N48   C49    1.51788       .     S
C56   N48    1.51515   1_455     S
N48   C56    1.51515   1_655     S
C63   N48    1.51787       .     S
N48   C63    1.51787       .     S
C70   N48    1.51924   1_455     S
N48   C70    1.51924   1_655     S
H50   C49    0.98971       .     S
C49   H50    0.98971       .     S
H51   C49    0.98978       .     S
C49   H51    0.98978       .     S
C52   C49    1.51595       .     S
C49   C52    1.51595       .     S
H53   C52    0.98108       .     S
C52   H53    0.98108       .     S
H54   C52    0.97908       .     S
C52   H54    0.97908       .     S
H55   C52    0.97919       .     S
C52   H55    0.97919       .     S
H57   C56    0.99012       .     S
C56   H57    0.99012       .     S
H58   C56    0.98867       .     S
C56   H58    0.98867       .     S
C59   C56    1.51859   1_655     S
C56   C59    1.51859   1_455     S
H60   C59    0.98015       .     S
C59   H60    0.98015       .     S
H61   C59    0.97942       .     S
C59   H61    0.97942       .     S
H62   C59    0.97998       .     S
C59   H62    0.97998       .     S
H64   C63    0.99022       .     S
C63   H64    0.99022       .     S
H65   C63    0.99093       .     S
C63   H65    0.99093       .     S
C66   C63    1.50858       .     S
C63   C66    1.50858       .     S
H67   C66    0.97990   1_455     S
C66   H67    0.97990   1_655     S
H68   C66    0.98114       .     S
C66   H68    0.98114       .     S
H69   C66    0.97904       .     S
C66   H69    0.97904       .     S
H71   C70    0.98922       .     S
C70   H71    0.98922       .     S
H72   C70    0.99096       .     S
C70   H72    0.99096       .     S
C73   C70    1.51600       .     S
C70   C73    1.51600       .     S
H74   C73    0.98053       .     S
C73   H74    0.98053       .     S
H75   C73    0.98022       .     S
C73   H75    0.98022       .     S
H76   C73    0.98017       .     S
C73   H76    0.98017       .     S
