data_I
_chemical_name_common  '/data/user2/wty/HOF/MOFDiff/mofdiff/data/test/3_822583_2dmf5c6h6s2a'
_cell_length_a  8.37200
_cell_length_b 12.08700
_cell_length_c 16.07200
_cell_angle_alpha 87.33600
_cell_angle_beta  88.08900
_cell_angle_gamma 79.57700
_space_group_name_H-M_alt      'P 1'


loop_
_space_group_symop_operation_xyz
  'x, y, z' 

loop_
_atom_site_label
_atom_site_fract_x
_atom_site_fract_y
_atom_site_fract_z
_atom_site_type_symbol
C0      0.8369  0.42074  0.16268     C
H1      0.7943   0.4663    0.116     H
C2      0.8538   0.3061  0.16167     C
H3      0.8242   0.2717    0.114     H
C4      0.9142  0.24054  0.23041     C
H5      0.9285   0.1608   0.2296     H
C6      0.9536   0.2914  0.30037     C
H7      0.9919   0.2468   0.3483     H
C8      0.9374   0.4064   0.3003     C
H9       0.965   0.4418    0.348     H
C10     0.8817  0.46951  0.23156     C
H11     0.8737   0.5489   0.2312     H
C12     0.9054   0.8765  0.26409     C
H13     0.8369   0.8704   0.2192     H
C14     0.0418    0.799  0.27485     C
H15     0.0672   0.7381   0.2386     H
C16     0.1425   0.8083  0.33755     C
H17     0.2386   0.7537   0.3447     H
C18     0.1074   0.8952  0.39057     C
H19     0.1793   0.9016   0.4339     H
C20     0.9648   0.9745  0.38051     C
H21     0.9383   0.0349   0.4172     H
C22     0.8636    0.964  0.31695     C
H23     0.7657   0.0167   0.3095     H
C24     0.1203   0.5524  0.46515     C
H25     0.2034   0.5887    0.441     H
C26      0.154   0.4399  0.48744     C
H27     0.2605   0.3984   0.4788     H
C28     0.0343    0.387  0.52227     C
H29     0.0578    0.309   0.5376     H
N30    0.34209    0.169  0.17095     N
H31     0.3773      0.1   0.1906     H
C32    0.35923  0.25856  0.21752     C
C33    0.31704  0.36568  0.18659     C
C34    0.26078  0.39566   0.0979     C
H35     0.1572   0.4516   0.1006     H
C36    0.22514  0.28975  0.06002     C
C37    0.27111  0.18476  0.09435     C
C38     0.3194  0.45894  0.23786     C
N39     0.3182  0.53725   0.2755     N
C40     0.1336   0.3065  0.98557     C
N41    0.05921  0.32539  0.92612     N
N42     0.5314  0.16545  0.46425     N
C43     0.4146  0.11995  0.43155     C
H44     0.3695   0.0655   0.4647     H
C45     0.3557   0.1473  0.35252     C
H46     0.2734   0.1117   0.3322     H
C47     0.4187  0.22804    0.303     C
C48       0.54  0.27618  0.33647     C
H49      0.587   0.3313   0.3052     H
C50     0.5908   0.2423   0.4161     C
H51     0.6737   0.2759   0.4381     H
N52    0.20925   0.8802  0.98281     N
C53     0.1592  0.90261   0.0609     C
H54     0.1089   0.8488   0.0917     H
C55     0.1761  0.99955  0.09972     C
H56     0.1398   0.0107   0.1559     H
C57    0.24712  0.08051  0.05519     C
C58     0.2998  0.05798  0.97366     C
H59       0.35   0.1103    0.941     H
C60      0.278  0.95852  0.94106     C
H61     0.3142   0.9446   0.8852     H
C62    0.38539  0.44936  0.04605     C
C63     0.5225  0.38438  0.01092     C
H64     0.5387   0.3047   0.0181     H
C65     0.3638   0.5658  0.03458     C
H66     0.2705   0.6116   0.0581     H
O67    0.47889  0.94957   0.2179     O
C68     0.5083   0.8816  0.27781     C
H69     0.5041   0.9109   0.3318     H
N70    0.54506   0.7715  0.27194     N
C71       0.55  0.72167  0.19104     C
H72     0.4738   0.7701   0.1541     H
H73     0.5195   0.6472   0.1978     H
H74     0.6602   0.7142   0.1668     H
C75     0.5968  0.69813  0.34418     C
H76     0.5769   0.7414   0.3948     H
H77     0.7131   0.6674   0.3383     H
H78     0.5354   0.6363   0.3481     H
loop_
_geom_bond_atom_site_label_1
_geom_bond_atom_site_label_2
_geom_bond_distance
_geom_bond_site_symmetry_2
_ccdc_geom_bond_type
H31   O67    1.90081   1_545     S
O67   H31    1.90081   1_565     S
C0    H1     0.94957       .     S
H1    C0     0.94957       .     S
C0    C2     1.36796       .     S
C2    C0     1.36796       .     S
C0    C10    1.37188       .     S
C10   C0     1.37188       .     S
C2    H3     0.94913       .     S
H3    C2     0.94913       .     S
C2    C4     1.38387       .     S
C4    C2     1.38387       .     S
C4    H5     0.95014       .     S
H5    C4     0.95014       .     S
C4    C6     1.38324       .     S
C6    C4     1.38324       .     S
C6    H7     0.94982       .     S
H7    C6     0.94982       .     S
C6    C8     1.37192       .     S
C8    C6     1.37192       .     S
C8    H9     0.94989       .     S
H9    C8     0.94989       .     S
C8    C10    1.35912       .     S
C10   C8     1.35912       .     S
C10   H11    0.94952       .     S
H11   C10    0.94952       .     S
C12   H13    0.95009       .     S
H13   C12    0.95009       .     S
C12   C14    1.34999   1_655     S
C14   C12    1.34999   1_455     S
C12   C22    1.37570       .     S
C22   C12    1.37570       .     S
C14   H15    0.94945       .     S
H15   C14    0.94945       .     S
C14   C16    1.35660       .     S
C16   C14    1.35660       .     S
C16   H17    0.95028       .     S
H17   C16    0.95028       .     S
C16   C18    1.36769       .     S
C18   C16    1.36769       .     S
C18   H19    0.95032       .     S
H19   C18    0.95032       .     S
C18   C20    1.39806   1_455     S
C20   C18    1.39806   1_655     S
C20   H21    0.95006   1_565     S
H21   C20    0.95006   1_545     S
C20   C22    1.37337       .     S
C22   C20    1.37337       .     S
C22   H23    0.94995   1_565     S
H23   C22    0.94995   1_545     S
C24   H25    0.95068       .     S
H25   C24    0.95068       .     S
C24   C26    1.37099       .     S
C26   C24    1.37099       .     S
C26   H27    0.94988       .     S
H27   C26    0.94988       .     S
C26   C28    1.37391       .     S
C28   C26    1.37391       .     S
C28   H29    0.95015       .     S
H29   C28    0.95015       .     S
N30   H31    0.88032       .     S
H31   N30    0.88032       .     S
N30   C32    1.37525       .     S
C32   N30    1.37525       .     S
N30   C37    1.37517       .     S
C37   N30    1.37517       .     S
C32   C33    1.35450       .     S
C33   C32    1.35450       .     S
C32   C47    1.48440       .     S
C47   C32    1.48440       .     S
C33   C34    1.52316       .     S
C34   C33    1.52316       .     S
C33   C38    1.43022       .     S
C38   C33    1.43022       .     S
C34   H35    0.99955       .     S
H35   C34    0.99955       .     S
C34   C36    1.52354       .     S
C36   C34    1.52354       .     S
C34   C62    1.52997       .     S
C62   C34    1.52997       .     S
C36   C37    1.35473       .     S
C37   C36    1.35473       .     S
C36   C40    1.42919   1_554     S
C40   C36    1.42919   1_556     S
C37   C57    1.48255       .     S
C57   C37    1.48255       .     S
C38   N39    1.14515       .     S
N39   C38    1.14515       .     S
C40   N41    1.14931       .     S
N41   C40    1.14931       .     S
N42   C43    1.33812       .     S
C43   N42    1.33812       .     S
N42   C50    1.33554       .     S
C50   N42    1.33554       .     S
C43   H44    0.95051       .     S
H44   C43    0.95051       .     S
C43   C45    1.38186       .     S
C45   C43    1.38186       .     S
C45   H46    0.94968       .     S
H46   C45    0.94968       .     S
C45   C47    1.39644       .     S
C47   C45    1.39644       .     S
C47   C48    1.39232       .     S
C48   C47    1.39232       .     S
C48   H49    0.94964       .     S
H49   C48    0.94964       .     S
C48   C50    1.38241       .     S
C50   C48    1.38241       .     S
C50   H51    0.95045       .     S
H51   C50    0.95045       .     S
N52   C53    1.33401   1_556     S
C53   N52    1.33401   1_554     S
N52   C60    1.33792       .     S
C60   N52    1.33792       .     S
C53   H54    0.94904       .     S
H54   C53    0.94904       .     S
C53   C55    1.38421       .     S
C55   C53    1.38421       .     S
C55   H56    0.95078   1_565     S
H56   C55    0.95078   1_545     S
C55   C57    1.39297   1_565     S
C57   C55    1.39297   1_545     S
C57   C58    1.39171   1_554     S
C58   C57    1.39171   1_556     S
C58   H59    0.95009       .     S
H59   C58    0.95009       .     S
C58   C60    1.37745   1_545     S
C60   C58    1.37745   1_565     S
C60   H61    0.95059       .     S
H61   C60    0.95059       .     S
C62   C63    1.38747       .     S
C63   C62    1.38747       .     S
C62   C65    1.39051       .     S
C65   C62    1.39051       .     S
C63   H64    0.95011       .     S
H64   C63    0.95011       .     S
C65   H66    0.95015       .     S
H66   C65    0.95015       .     S
O67   C68    1.23765       .     S
C68   O67    1.23765       .     S
C68   H69    0.94954       .     S
H69   C68    0.94954       .     S
C68   N70    1.31762       .     S
N70   C68    1.31762       .     S
N70   C71    1.45439       .     S
C71   N70    1.45439       .     S
N70   C75    1.45635       .     S
C75   N70    1.45635       .     S
C71   H72    0.97977       .     S
H72   C71    0.97977       .     S
C71   H73    0.97951       .     S
H73   C71    0.97951       .     S
C71   H74    0.97993       .     S
H74   C71    0.97993       .     S
C75   H76    0.98090       .     S
H76   C75    0.98090       .     S
C75   H77    0.98040       .     S
H77   C75    0.98040       .     S
C75   H78    0.97938       .     S
H78   C75    0.97938       .     S
O67   H31    1.90081   1_565     S
H31   O67    1.90081   1_545     S
H1    C0     0.94957       .     S
C0    H1     0.94957       .     S
C2    C0     1.36796       .     S
C0    C2     1.36796       .     S
C10   C0     1.37188       .     S
C0    C10    1.37188       .     S
H3    C2     0.94913       .     S
C2    H3     0.94913       .     S
C4    C2     1.38387       .     S
C2    C4     1.38387       .     S
H5    C4     0.95014       .     S
C4    H5     0.95014       .     S
C6    C4     1.38324       .     S
C4    C6     1.38324       .     S
H7    C6     0.94982       .     S
C6    H7     0.94982       .     S
C8    C6     1.37192       .     S
C6    C8     1.37192       .     S
H9    C8     0.94989       .     S
C8    H9     0.94989       .     S
C10   C8     1.35912       .     S
C8    C10    1.35912       .     S
H11   C10    0.94952       .     S
C10   H11    0.94952       .     S
H13   C12    0.95009       .     S
C12   H13    0.95009       .     S
C14   C12    1.34999   1_455     S
C12   C14    1.34999   1_655     S
C22   C12    1.37570       .     S
C12   C22    1.37570       .     S
H15   C14    0.94945       .     S
C14   H15    0.94945       .     S
C16   C14    1.35660       .     S
C14   C16    1.35660       .     S
H17   C16    0.95028       .     S
C16   H17    0.95028       .     S
C18   C16    1.36769       .     S
C16   C18    1.36769       .     S
H19   C18    0.95032       .     S
C18   H19    0.95032       .     S
C20   C18    1.39806   1_655     S
C18   C20    1.39806   1_455     S
H21   C20    0.95006   1_545     S
C20   H21    0.95006   1_565     S
C22   C20    1.37337       .     S
C20   C22    1.37337       .     S
H23   C22    0.94995   1_545     S
C22   H23    0.94995   1_565     S
H25   C24    0.95068       .     S
C24   H25    0.95068       .     S
C26   C24    1.37099       .     S
C24   C26    1.37099       .     S
H27   C26    0.94988       .     S
C26   H27    0.94988       .     S
C28   C26    1.37391       .     S
C26   C28    1.37391       .     S
H29   C28    0.95015       .     S
C28   H29    0.95015       .     S
H31   N30    0.88032       .     S
N30   H31    0.88032       .     S
C32   N30    1.37525       .     S
N30   C32    1.37525       .     S
C37   N30    1.37517       .     S
N30   C37    1.37517       .     S
C33   C32    1.35450       .     S
C32   C33    1.35450       .     S
C47   C32    1.48440       .     S
C32   C47    1.48440       .     S
C34   C33    1.52316       .     S
C33   C34    1.52316       .     S
C38   C33    1.43022       .     S
C33   C38    1.43022       .     S
H35   C34    0.99955       .     S
C34   H35    0.99955       .     S
C36   C34    1.52354       .     S
C34   C36    1.52354       .     S
C62   C34    1.52997       .     S
C34   C62    1.52997       .     S
C37   C36    1.35473       .     S
C36   C37    1.35473       .     S
C40   C36    1.42919   1_556     S
C36   C40    1.42919   1_554     S
C57   C37    1.48255       .     S
C37   C57    1.48255       .     S
N39   C38    1.14515       .     S
C38   N39    1.14515       .     S
N41   C40    1.14931       .     S
C40   N41    1.14931       .     S
C43   N42    1.33812       .     S
N42   C43    1.33812       .     S
C50   N42    1.33554       .     S
N42   C50    1.33554       .     S
H44   C43    0.95051       .     S
C43   H44    0.95051       .     S
C45   C43    1.38186       .     S
C43   C45    1.38186       .     S
H46   C45    0.94968       .     S
C45   H46    0.94968       .     S
C47   C45    1.39644       .     S
C45   C47    1.39644       .     S
C48   C47    1.39232       .     S
C47   C48    1.39232       .     S
H49   C48    0.94964       .     S
C48   H49    0.94964       .     S
C50   C48    1.38241       .     S
C48   C50    1.38241       .     S
H51   C50    0.95045       .     S
C50   H51    0.95045       .     S
C53   N52    1.33401   1_554     S
N52   C53    1.33401   1_556     S
C60   N52    1.33792       .     S
N52   C60    1.33792       .     S
H54   C53    0.94904       .     S
C53   H54    0.94904       .     S
C55   C53    1.38421       .     S
C53   C55    1.38421       .     S
H56   C55    0.95078   1_545     S
C55   H56    0.95078   1_565     S
C57   C55    1.39297   1_545     S
C55   C57    1.39297   1_565     S
C58   C57    1.39171   1_556     S
C57   C58    1.39171   1_554     S
H59   C58    0.95009       .     S
C58   H59    0.95009       .     S
C60   C58    1.37745   1_565     S
C58   C60    1.37745   1_545     S
H61   C60    0.95059       .     S
C60   H61    0.95059       .     S
C63   C62    1.38747       .     S
C62   C63    1.38747       .     S
C65   C62    1.39051       .     S
C62   C65    1.39051       .     S
H64   C63    0.95011       .     S
C63   H64    0.95011       .     S
H66   C65    0.95015       .     S
C65   H66    0.95015       .     S
C68   O67    1.23765       .     S
O67   C68    1.23765       .     S
H69   C68    0.94954       .     S
C68   H69    0.94954       .     S
N70   C68    1.31762       .     S
C68   N70    1.31762       .     S
C71   N70    1.45439       .     S
N70   C71    1.45439       .     S
C75   N70    1.45635       .     S
N70   C75    1.45635       .     S
H72   C71    0.97977       .     S
C71   H72    0.97977       .     S
H73   C71    0.97951       .     S
C71   H73    0.97951       .     S
H74   C71    0.97993       .     S
C71   H74    0.97993       .     S
H76   C75    0.98090       .     S
C75   H76    0.98090       .     S
H77   C75    0.98040       .     S
C75   H77    0.98040       .     S
H78   C75    0.97938       .     S
C75   H78    0.97938       .     S
