data_I
_chemical_name_common  '/data/user2/wty/HOF/MOFDiff/mofdiff/data/test/3_822585_2dmf4meohs2b'
_cell_length_a  9.07090
_cell_length_b 10.94210
_cell_length_c 12.79640
_cell_angle_alpha 93.57300
_cell_angle_beta  99.33500
_cell_angle_gamma 104.49600
_space_group_name_H-M_alt      'P 1'


loop_
_space_group_symop_operation_xyz
  'x, y, z' 

loop_
_atom_site_label
_atom_site_fract_x
_atom_site_fract_y
_atom_site_fract_z
_atom_site_type_symbol
O0     0.06306  0.40598  0.24963     O
H1      0.0407   0.3945   0.3101     H
C2      0.0415  0.28674  0.19046     C
H3      0.0475   0.2992   0.1159     H
H4      0.9397   0.2315   0.1944     H
H5      0.1225   0.2472   0.2202     H
H6      0.5278   0.6324   0.5568     H
H7      0.6376   0.6152    0.663     H
C8       0.549    0.612    0.625     C
O9      0.4182   0.5291   0.6542     O
H10     0.4405     0.46    0.643     H
O11     0.4393   0.5113   0.5632     O
H12     0.4408   0.4438   0.5908     H
C13      0.537    0.629   0.6338     C
H14     0.5307   0.6148   0.6985     H
H15     0.5415   0.6917   0.5964     H
H16     0.5287   0.7094   0.6675     H
H17     0.6528    0.601   0.6242     H
N18    0.17276   0.6586  0.19777     N
H19     0.1392   0.5802   0.2128     H
C20    0.23577  0.67997  0.10725     C
C21    0.27464  0.79821  0.07654     C
C22    0.24167  0.91345  0.13229     C
H23      0.339   0.9842   0.1466     H
C24    0.19871   0.8782  0.23896     C
C25    0.16168  0.75757  0.26464     C
C26    0.35492  0.82193  0.98923     C
N27    0.42011  0.84686  0.92057     N
C28     0.2007  0.98189   0.3131     C
N29      0.206  0.06935  0.36922     N
N30    0.32853  0.35788  0.94944     N
C31    0.37185  0.38928  0.05463     C
H32     0.4255   0.3381   0.0945     H
C33    0.34336  0.49164  0.10883     C
H34      0.377     0.51   0.1837     H
C35     0.2644  0.56744  0.05166     C
C36    0.21736  0.53583   0.9422     C
H37     0.1625   0.5846   0.9003     H
C38     0.2525  0.43139  0.89585     C
H39     0.2205   0.4107    0.821     H
N40    0.01967    0.664  0.55928     N
C41     0.1414  0.63225   0.5306     C
H42     0.1971    0.589   0.5779     H
C43     0.1909   0.6589  0.43571     C
H44     0.2775   0.6335   0.4182     H
C45    0.11113  0.72367  0.36654     C
C46     0.9842  0.75682  0.39578     C
H47      0.927   0.8011   0.3505     H
C48     0.9419  0.72464  0.49148     C
H49     0.8538   0.7465   0.5101     H
C50    0.11529  0.95877  0.06368     C
C51    0.96001  0.89508  0.05369     C
H52     0.9315   0.8226   0.0905     H
C53    0.15445  0.06431  0.00934     C
H54     0.2602   0.1092   0.0152     H
loop_
_geom_bond_atom_site_label_1
_geom_bond_atom_site_label_2
_geom_bond_distance
_geom_bond_site_symmetry_2
_ccdc_geom_bond_type
H19   O0     1.97273       .     S
O0    H19    1.97273       .     S
O0    H1     0.84021       .     S
H1    O0     0.84021       .     S
O0    C2     1.41950       .     S
C2    O0     1.41950       .     S
C2    H3     0.98041       .     S
H3    C2     0.98041       .     S
C2    H4     0.97983   1_455     S
H4    C2     0.97983   1_655     S
C2    H5     0.98021       .     S
H5    C2     0.98021       .     S
H6    C8     0.91639       .     S
C8    H6     0.91639       .     S
H6    C13    0.97911       .     S
C13   H6     0.97911       .     S
H7    C8     0.86058       .     S
C8    H7     0.86058       .     S
H7    C13    0.98007       .     S
C13   H7     0.98007       .     S
H7    H17    0.55945       .     S
H17   H7     0.55945       .     S
C8    O9     1.42037       .     S
O9    C8     1.42037       .     S
C8    O11    1.38452       .     S
O11   C8     1.38452       .     S
C8    C13    0.26577       .     S
C13   C8     0.26577       .     S
C8    H14    0.98117       .     S
H14   C8     0.98117       .     S
C8    H15    0.98005       .     S
H15   C8     0.98005       .     S
C8    H16    1.23451       .     S
H16   C8     1.23451       .     S
C8    H17    0.98022       .     S
H17   C8     0.98022       .     S
O9    H10    0.84001       .     S
H10   O9     0.84001       .     S
O9    O11    1.22199       .     S
O11   O9     1.22199       .     S
O9    C13    1.40051       .     S
C13   O9     1.40051       .     S
H10   O11    1.19535       .     S
O11   H10    1.19535       .     S
H10   H12    0.68095       .     S
H12   H10    0.68095       .     S
O11   H12    0.84049       .     S
H12   O11    0.84049       .     S
O11   C13    1.51132       .     S
C13   O11    1.51132       .     S
C13   H14    0.86012       .     S
H14   C13    0.86012       .     S
C13   H15    0.85711       .     S
H15   C13    0.85711       .     S
C13   H16    0.98081       .     S
H16   C13    0.98081       .     S
C13   H17    1.18769       .     S
H17   C13    1.18769       .     S
N18   H19    0.88000       .     S
H19   N18    0.88000       .     S
N18   C20    1.38011       .     S
C20   N18    1.38011       .     S
N18   C25    1.37185       .     S
C25   N18    1.37185       .     S
C20   C21    1.35374       .     S
C21   C20    1.35374       .     S
C20   C35    1.48339       .     S
C35   C20    1.48339       .     S
C21   C22    1.52784       .     S
C22   C21    1.52784       .     S
C21   C26    1.43226   1_554     S
C26   C21    1.43226   1_556     S
C22   H23    1.00001       .     S
H23   C22    1.00001       .     S
C22   C24    1.52537       .     S
C24   C22    1.52537       .     S
C22   C50    1.53077       .     S
C50   C22    1.53077       .     S
C24   C25    1.35314       .     S
C25   C24    1.35314       .     S
C24   C28    1.42749       .     S
C28   C24    1.42749       .     S
C25   C45    1.48904       .     S
C45   C25    1.48904       .     S
C26   N27    1.14616       .     S
N27   C26    1.14616       .     S
C28   N29    1.14629   1_565     S
N29   C28    1.14629   1_545     S
N30   C31    1.33697   1_556     S
C31   N30    1.33697   1_554     S
N30   C38    1.33638       .     S
C38   N30    1.33638       .     S
C31   H32    0.94987       .     S
H32   C31    0.94987       .     S
C31   C33    1.38149       .     S
C33   C31    1.38149       .     S
C33   H34    0.94965       .     S
H34   C33    0.94965       .     S
C33   C35    1.39254       .     S
C35   C33    1.39254       .     S
C35   C36    1.39122   1_554     S
C36   C35    1.39122   1_556     S
C36   H37    0.94971       .     S
H37   C36    0.94971       .     S
C36   C38    1.38513       .     S
C38   C36    1.38513       .     S
C38   H39    0.95015       .     S
H39   C38    0.95015       .     S
N40   C41    1.33501       .     S
C41   N40    1.33501       .     S
N40   C48    1.34096   1_455     S
C48   N40    1.34096   1_655     S
C41   H42    0.94962       .     S
H42   C41    0.94962       .     S
C41   C43    1.38438       .     S
C43   C41    1.38438       .     S
C43   H44    0.95035       .     S
H44   C43    0.95035       .     S
C43   C45    1.39156       .     S
C45   C43    1.39156       .     S
C45   C46    1.38894   1_455     S
C46   C45    1.38894   1_655     S
C46   H47    0.95027       .     S
H47   C46    0.95027       .     S
C46   C48    1.38182       .     S
C48   C46    1.38182       .     S
C48   H49    0.95026       .     S
H49   C48    0.95026       .     S
C50   C51    1.38746   1_455     S
C51   C50    1.38746   1_655     S
C50   C53    1.38499   1_565     S
C53   C50    1.38499   1_545     S
C51   H52    0.94928       .     S
H52   C51    0.94928       .     S
C53   H54    0.95039       .     S
H54   C53    0.95039       .     S
O0    H19    1.97273       .     S
H19   O0     1.97273       .     S
H1    O0     0.84021       .     S
O0    H1     0.84021       .     S
C2    O0     1.41950       .     S
O0    C2     1.41950       .     S
H3    C2     0.98041       .     S
C2    H3     0.98041       .     S
H4    C2     0.97983   1_655     S
C2    H4     0.97983   1_455     S
H5    C2     0.98021       .     S
C2    H5     0.98021       .     S
C8    H6     0.91639       .     S
H6    C8     0.91639       .     S
C13   H6     0.97911       .     S
H6    C13    0.97911       .     S
C8    H7     0.86058       .     S
H7    C8     0.86058       .     S
C13   H7     0.98007       .     S
H7    C13    0.98007       .     S
H17   H7     0.55945       .     S
H7    H17    0.55945       .     S
O9    C8     1.42037       .     S
C8    O9     1.42037       .     S
O11   C8     1.38452       .     S
C8    O11    1.38452       .     S
C13   C8     0.26577       .     S
C8    C13    0.26577       .     S
H14   C8     0.98117       .     S
C8    H14    0.98117       .     S
H15   C8     0.98005       .     S
C8    H15    0.98005       .     S
H16   C8     1.23451       .     S
C8    H16    1.23451       .     S
H17   C8     0.98022       .     S
C8    H17    0.98022       .     S
H10   O9     0.84001       .     S
O9    H10    0.84001       .     S
O11   O9     1.22199       .     S
O9    O11    1.22199       .     S
C13   O9     1.40051       .     S
O9    C13    1.40051       .     S
O11   H10    1.19535       .     S
H10   O11    1.19535       .     S
H12   H10    0.68095       .     S
H10   H12    0.68095       .     S
H12   O11    0.84049       .     S
O11   H12    0.84049       .     S
C13   O11    1.51132       .     S
O11   C13    1.51132       .     S
H14   C13    0.86012       .     S
C13   H14    0.86012       .     S
H15   C13    0.85711       .     S
C13   H15    0.85711       .     S
H16   C13    0.98081       .     S
C13   H16    0.98081       .     S
H17   C13    1.18769       .     S
C13   H17    1.18769       .     S
H19   N18    0.88000       .     S
N18   H19    0.88000       .     S
C20   N18    1.38011       .     S
N18   C20    1.38011       .     S
C25   N18    1.37185       .     S
N18   C25    1.37185       .     S
C21   C20    1.35374       .     S
C20   C21    1.35374       .     S
C35   C20    1.48339       .     S
C20   C35    1.48339       .     S
C22   C21    1.52784       .     S
C21   C22    1.52784       .     S
C26   C21    1.43226   1_556     S
C21   C26    1.43226   1_554     S
H23   C22    1.00001       .     S
C22   H23    1.00001       .     S
C24   C22    1.52537       .     S
C22   C24    1.52537       .     S
C50   C22    1.53077       .     S
C22   C50    1.53077       .     S
C25   C24    1.35314       .     S
C24   C25    1.35314       .     S
C28   C24    1.42749       .     S
C24   C28    1.42749       .     S
C45   C25    1.48904       .     S
C25   C45    1.48904       .     S
N27   C26    1.14616       .     S
C26   N27    1.14616       .     S
N29   C28    1.14629   1_545     S
C28   N29    1.14629   1_565     S
C31   N30    1.33697   1_554     S
N30   C31    1.33697   1_556     S
C38   N30    1.33638       .     S
N30   C38    1.33638       .     S
H32   C31    0.94987       .     S
C31   H32    0.94987       .     S
C33   C31    1.38149       .     S
C31   C33    1.38149       .     S
H34   C33    0.94965       .     S
C33   H34    0.94965       .     S
C35   C33    1.39254       .     S
C33   C35    1.39254       .     S
C36   C35    1.39122   1_556     S
C35   C36    1.39122   1_554     S
H37   C36    0.94971       .     S
C36   H37    0.94971       .     S
C38   C36    1.38513       .     S
C36   C38    1.38513       .     S
H39   C38    0.95015       .     S
C38   H39    0.95015       .     S
C41   N40    1.33501       .     S
N40   C41    1.33501       .     S
C48   N40    1.34096   1_655     S
N40   C48    1.34096   1_455     S
H42   C41    0.94962       .     S
C41   H42    0.94962       .     S
C43   C41    1.38438       .     S
C41   C43    1.38438       .     S
H44   C43    0.95035       .     S
C43   H44    0.95035       .     S
C45   C43    1.39156       .     S
C43   C45    1.39156       .     S
C46   C45    1.38894   1_655     S
C45   C46    1.38894   1_455     S
H47   C46    0.95027       .     S
C46   H47    0.95027       .     S
C48   C46    1.38182       .     S
C46   C48    1.38182       .     S
H49   C48    0.95026       .     S
C48   H49    0.95026       .     S
C51   C50    1.38746   1_655     S
C50   C51    1.38746   1_455     S
C53   C50    1.38499   1_545     S
C50   C53    1.38499   1_565     S
H52   C51    0.94928       .     S
C51   H52    0.94928       .     S
H54   C53    0.95039       .     S
C53   H54    0.95039       .     S
