data_I
_chemical_name_common  '/data/user2/wty/HOF/MOFDiff/mofdiff/data/test/3_822584_2dmf5c6h6s2a'
_cell_length_a  8.38030
_cell_length_b 12.10130
_cell_length_c 16.10170
_cell_angle_alpha 87.35200
_cell_angle_beta  88.20900
_cell_angle_gamma 79.70900
_space_group_name_H-M_alt      'P 1'


loop_
_space_group_symop_operation_xyz
  'x, y, z' 

loop_
_atom_site_label
_atom_site_fract_x
_atom_site_fract_y
_atom_site_fract_z
_atom_site_type_symbol
O0     0.47879  0.94963  0.21803     O
N1     0.54558  0.77167  0.27197     N
C2     0.50797  0.88168  0.27776     C
H3      0.5029   0.9109   0.3317     H
C4      0.5508  0.72185  0.19107     C
H5      0.4736   0.7695   0.1543     H
H6      0.5218   0.6469   0.1978     H
H7      0.6604   0.7155   0.1667     H
C8      0.5974  0.69804  0.34396     C
H9      0.5775   0.7409   0.3946     H
H10     0.7135   0.6676   0.3381     H
H11     0.5361   0.6361   0.3476     H
C12     0.9142  0.24076  0.23034     C
H13     0.9279   0.1612   0.2295     H
C14     0.9543  0.29121  0.30038     C
H15      0.993   0.2466   0.3482     H
C16     0.9375  0.40668   0.3002     C
H17     0.9648    0.442   0.3479     H
C18     0.8816  0.47004  0.23143     C
H19     0.8732   0.5494    0.231     H
C20     0.8374  0.42058  0.16273     C
H21      0.795   0.4658   0.1159     H
C22     0.8544  0.30601  0.16169     C
H23     0.8252   0.2715    0.114     H
C24     0.0421  0.79892  0.27442     C
H25     0.0675   0.7384    0.238     H
C26     0.9048  0.87678  0.26387     C
H27     0.8356   0.8706   0.2193     H
C28     0.8643   0.9641  0.31654     C
H29     0.7671   0.0172   0.3089     H
C30     0.9652  0.97419  0.38036     C
H31     0.9383   0.0341   0.4173     H
C32     0.1077  0.89539  0.39036     C
H33     0.1798   0.9021   0.4335     H
C34     0.1428  0.80807  0.33727     C
H35     0.2385   0.7535   0.3446     H
N36    0.20961  0.88027  0.98292     N
C37    0.15945  0.90281  0.06125     C
H38     0.1093   0.8489    0.092     H
C39    0.17621  0.99956  0.09991     C
H40     0.1401   0.0107   0.1559     H
C41    0.24699  0.08046  0.05536     C
C42    0.29965  0.05824  0.97397     C
H43     0.3493   0.1108   0.9415     H
C44    0.27846  0.95827  0.94123     C
H45     0.3151   0.9442   0.8856     H
N46    0.53246  0.16558  0.46414     N
C47     0.5914  0.24267  0.41599     C
H48      0.674   0.2765   0.4379     H
C49    0.54034  0.27645  0.33647     C
H50      0.587   0.3317   0.3052     H
C51    0.41933   0.2281  0.30309     C
C52    0.35667  0.14738  0.35253     C
H53     0.2744   0.1117   0.3322     H
C54    0.41559  0.12009  0.43129     C
H55     0.3705   0.0657   0.4643     H
N56    0.34222  0.16919  0.17097     N
H57     0.3775   0.1004   0.1906     H
C58     0.3594  0.25908  0.21763     C
C59    0.31746   0.3656  0.18668     C
C60    0.26113  0.39552  0.09788     C
H61     0.1577   0.4513   0.1006     H
C62    0.22501  0.28963  0.06014     C
C63    0.27111  0.18499  0.09445     C
N64     0.3186  0.53749  0.27571     N
C65     0.3196  0.45892  0.23794     C
N66    0.05914  0.32514  0.92617     N
C67    0.13339  0.30635  0.98561     C
C68    0.38539  0.44958  0.04625     C
C69    0.36402  0.56578  0.03451     C
H70     0.2709   0.6114   0.0578     H
C71    0.52229  0.38412  0.01105     C
H72     0.5381   0.3046   0.0182     H
C73     0.1544  0.43969  0.48773     C
H74     0.2607   0.3982   0.4793     H
C75     0.0339   0.3868  0.52243     C
H76      0.057    0.309   0.5379     H
C77     0.8793  0.44742  0.53465     C
H78     0.7961   0.4112   0.5585     H
loop_
_geom_bond_atom_site_label_1
_geom_bond_atom_site_label_2
_geom_bond_distance
_geom_bond_site_symmetry_2
_ccdc_geom_bond_type
H57   O0     1.90790   1_545     S
O0    H57    1.90790   1_565     S
O0    C2     1.23722       .     S
C2    O0     1.23722       .     S
N1    C2     1.31909       .     S
C2    N1     1.31909       .     S
N1    C4     1.45664       .     S
C4    N1     1.45664       .     S
N1    C8     1.45737       .     S
C8    N1     1.45737       .     S
C2    H3     0.94967       .     S
H3    C2     0.94967       .     S
C4    H5     0.98015       .     S
H5    C4     0.98015       .     S
C4    H6     0.98055       .     S
H6    C4     0.98055       .     S
C4    H7     0.97904       .     S
H7    C4     0.97904       .     S
C8    H9     0.98049       .     S
H9    C8     0.98049       .     S
C8    H10    0.98013       .     S
H10   C8     0.98013       .     S
C8    H11    0.98021       .     S
H11   C8     0.98021       .     S
C12   H13    0.94969       .     S
H13   C12    0.94969       .     S
C12   C14    1.38496       .     S
C14   C12    1.38496       .     S
C12   C22    1.38170       .     S
C22   C12    1.38170       .     S
C14   H15    0.95086       .     S
H15   C14    0.95086       .     S
C14   C16    1.37904       .     S
C16   C14    1.37904       .     S
C16   H17    0.94931       .     S
H17   C16    0.94931       .     S
C16   C18    1.36350       .     S
C18   C16    1.36350       .     S
C18   H19    0.95003       .     S
H19   C18    0.95003       .     S
C18   C20    1.37299       .     S
C20   C18    1.37299       .     S
C20   H21    0.95049       .     S
H21   C20    0.95049       .     S
C20   C22    1.36903       .     S
C22   C20    1.36903       .     S
C22   H23    0.94965       .     S
H23   C22    0.94965       .     S
C24   H25    0.94960       .     S
H25   C24    0.94960       .     S
C24   C26    1.36037   1_455     S
C26   C24    1.36037   1_655     S
C24   C34    1.35855       .     S
C34   C24    1.35855       .     S
C26   H27    0.95047       .     S
H27   C26    0.95047       .     S
C26   C28    1.37393       .     S
C28   C26    1.37393       .     S
C28   H29    0.95053   1_565     S
H29   C28    0.95053   1_545     S
C28   C30    1.37429       .     S
C30   C28    1.37429       .     S
C30   H31    0.95041   1_565     S
H31   C30    0.95041   1_545     S
C30   C32    1.39725   1_655     S
C32   C30    1.39725   1_455     S
C32   H33    0.95035       .     S
H33   C32    0.95035       .     S
C32   C34    1.37497       .     S
C34   C32    1.37497       .     S
C34   H35    0.95010       .     S
H35   C34    0.95010       .     S
N36   C37    1.34146   1_556     S
C37   N36    1.34146   1_554     S
N36   C44    1.33653       .     S
C44   N36    1.33653       .     S
C37   H38    0.94999       .     S
H38   C37    0.94999       .     S
C37   C39    1.38187       .     S
C39   C37    1.38187       .     S
C39   H40    0.94980   1_565     S
H40   C39    0.94980   1_545     S
C39   C41    1.39314   1_565     S
C41   C39    1.39314   1_545     S
C41   C42    1.39231   1_554     S
C42   C41    1.39231   1_556     S
C41   C63    1.48660       .     S
C63   C41    1.48660       .     S
C42   H43    0.94934       .     S
H43   C42    0.94934       .     S
C42   C44    1.38366   1_545     S
C44   C42    1.38366   1_565     S
C44   H45    0.95070       .     S
H45   C44    0.95070       .     S
N46   C47    1.33761       .     S
C47   N46    1.33761       .     S
N46   C54    1.33939       .     S
C54   N46    1.33939       .     S
C47   H48    0.94925       .     S
H48   C47    0.94925       .     S
C47   C49    1.38312       .     S
C49   C47    1.38312       .     S
C49   H50    0.95049       .     S
H50   C49    0.95049       .     S
C49   C51    1.39095       .     S
C51   C49    1.39095       .     S
C51   C52    1.39604       .     S
C52   C51    1.39604       .     S
C51   C58    1.48814       .     S
C58   C51    1.48814       .     S
C52   H53    0.94997       .     S
H53   C52    0.94997       .     S
C52   C54    1.37960       .     S
C54   C52    1.37960       .     S
C54   H55    0.95000       .     S
H55   C54    0.95000       .     S
N56   H57    0.87970       .     S
H57   N56    0.87970       .     S
N56   C58    1.38083       .     S
C58   N56    1.38083       .     S
N56   C63    1.37593       .     S
C63   N56    1.37593       .     S
C58   C59    1.35026       .     S
C59   C58    1.35026       .     S
C59   C60    1.52697       .     S
C60   C59    1.52697       .     S
C59   C65    1.43218       .     S
C65   C59    1.43218       .     S
C60   H61    1.00008       .     S
H61   C60    1.00008       .     S
C60   C62    1.52477       .     S
C62   C60    1.52477       .     S
C60   C68    1.53052       .     S
C68   C60    1.53052       .     S
C62   C63    1.35345       .     S
C63   C62    1.35345       .     S
C62   C67    1.43187   1_554     S
C67   C62    1.43187   1_556     S
N64   C65    1.15074       .     S
C65   N64    1.15074       .     S
N66   C67    1.14955       .     S
C67   N66    1.14955       .     S
C68   C69    1.39022       .     S
C69   C68    1.39022       .     S
C68   C71    1.39323       .     S
C71   C68    1.39323       .     S
C69   H70    0.94937       .     S
H70   C69    0.94937       .     S
C71   H72    0.94973       .     S
H72   C71    0.94973       .     S
C73   H74    0.95027       .     S
H74   C73    0.95027       .     S
C73   C75    1.37993       .     S
C75   C73    1.37993       .     S
C75   H76    0.94981       .     S
H76   C75    0.94981       .     S
C75   C77    1.38320   1_455     S
C77   C75    1.38320   1_655     S
C77   H78    0.95007       .     S
H78   C77    0.95007       .     S
O0    H57    1.90790   1_565     S
H57   O0     1.90790   1_545     S
C2    O0     1.23722       .     S
O0    C2     1.23722       .     S
C2    N1     1.31909       .     S
N1    C2     1.31909       .     S
C4    N1     1.45664       .     S
N1    C4     1.45664       .     S
C8    N1     1.45737       .     S
N1    C8     1.45737       .     S
H3    C2     0.94967       .     S
C2    H3     0.94967       .     S
H5    C4     0.98015       .     S
C4    H5     0.98015       .     S
H6    C4     0.98055       .     S
C4    H6     0.98055       .     S
H7    C4     0.97904       .     S
C4    H7     0.97904       .     S
H9    C8     0.98049       .     S
C8    H9     0.98049       .     S
H10   C8     0.98013       .     S
C8    H10    0.98013       .     S
H11   C8     0.98021       .     S
C8    H11    0.98021       .     S
H13   C12    0.94969       .     S
C12   H13    0.94969       .     S
C14   C12    1.38496       .     S
C12   C14    1.38496       .     S
C22   C12    1.38170       .     S
C12   C22    1.38170       .     S
H15   C14    0.95086       .     S
C14   H15    0.95086       .     S
C16   C14    1.37904       .     S
C14   C16    1.37904       .     S
H17   C16    0.94931       .     S
C16   H17    0.94931       .     S
C18   C16    1.36350       .     S
C16   C18    1.36350       .     S
H19   C18    0.95003       .     S
C18   H19    0.95003       .     S
C20   C18    1.37299       .     S
C18   C20    1.37299       .     S
H21   C20    0.95049       .     S
C20   H21    0.95049       .     S
C22   C20    1.36903       .     S
C20   C22    1.36903       .     S
H23   C22    0.94965       .     S
C22   H23    0.94965       .     S
H25   C24    0.94960       .     S
C24   H25    0.94960       .     S
C26   C24    1.36037   1_655     S
C24   C26    1.36037   1_455     S
C34   C24    1.35855       .     S
C24   C34    1.35855       .     S
H27   C26    0.95047       .     S
C26   H27    0.95047       .     S
C28   C26    1.37393       .     S
C26   C28    1.37393       .     S
H29   C28    0.95053   1_545     S
C28   H29    0.95053   1_565     S
C30   C28    1.37429       .     S
C28   C30    1.37429       .     S
H31   C30    0.95041   1_545     S
C30   H31    0.95041   1_565     S
C32   C30    1.39725   1_455     S
C30   C32    1.39725   1_655     S
H33   C32    0.95035       .     S
C32   H33    0.95035       .     S
C34   C32    1.37497       .     S
C32   C34    1.37497       .     S
H35   C34    0.95010       .     S
C34   H35    0.95010       .     S
C37   N36    1.34146   1_554     S
N36   C37    1.34146   1_556     S
C44   N36    1.33653       .     S
N36   C44    1.33653       .     S
H38   C37    0.94999       .     S
C37   H38    0.94999       .     S
C39   C37    1.38187       .     S
C37   C39    1.38187       .     S
H40   C39    0.94980   1_545     S
C39   H40    0.94980   1_565     S
C41   C39    1.39314   1_545     S
C39   C41    1.39314   1_565     S
C42   C41    1.39231   1_556     S
C41   C42    1.39231   1_554     S
C63   C41    1.48660       .     S
C41   C63    1.48660       .     S
H43   C42    0.94934       .     S
C42   H43    0.94934       .     S
C44   C42    1.38366   1_565     S
C42   C44    1.38366   1_545     S
H45   C44    0.95070       .     S
C44   H45    0.95070       .     S
C47   N46    1.33761       .     S
N46   C47    1.33761       .     S
C54   N46    1.33939       .     S
N46   C54    1.33939       .     S
H48   C47    0.94925       .     S
C47   H48    0.94925       .     S
C49   C47    1.38312       .     S
C47   C49    1.38312       .     S
H50   C49    0.95049       .     S
C49   H50    0.95049       .     S
C51   C49    1.39095       .     S
C49   C51    1.39095       .     S
C52   C51    1.39604       .     S
C51   C52    1.39604       .     S
C58   C51    1.48814       .     S
C51   C58    1.48814       .     S
H53   C52    0.94997       .     S
C52   H53    0.94997       .     S
C54   C52    1.37960       .     S
C52   C54    1.37960       .     S
H55   C54    0.95000       .     S
C54   H55    0.95000       .     S
H57   N56    0.87970       .     S
N56   H57    0.87970       .     S
C58   N56    1.38083       .     S
N56   C58    1.38083       .     S
C63   N56    1.37593       .     S
N56   C63    1.37593       .     S
C59   C58    1.35026       .     S
C58   C59    1.35026       .     S
C60   C59    1.52697       .     S
C59   C60    1.52697       .     S
C65   C59    1.43218       .     S
C59   C65    1.43218       .     S
H61   C60    1.00008       .     S
C60   H61    1.00008       .     S
C62   C60    1.52477       .     S
C60   C62    1.52477       .     S
C68   C60    1.53052       .     S
C60   C68    1.53052       .     S
C63   C62    1.35345       .     S
C62   C63    1.35345       .     S
C67   C62    1.43187   1_556     S
C62   C67    1.43187   1_554     S
C65   N64    1.15074       .     S
N64   C65    1.15074       .     S
C67   N66    1.14955       .     S
N66   C67    1.14955       .     S
C69   C68    1.39022       .     S
C68   C69    1.39022       .     S
C71   C68    1.39323       .     S
C68   C71    1.39323       .     S
H70   C69    0.94937       .     S
C69   H70    0.94937       .     S
H72   C71    0.94973       .     S
C71   H72    0.94973       .     S
H74   C73    0.95027       .     S
C73   H74    0.95027       .     S
C75   C73    1.37993       .     S
C73   C75    1.37993       .     S
H76   C75    0.94981       .     S
C75   H76    0.94981       .     S
C77   C75    1.38320   1_655     S
C75   C77    1.38320   1_455     S
H78   C77    0.95007       .     S
C77   H78    0.95007       .     S
