data_I
_chemical_name_common  '/data/user2/wty/HOF/MOFDiff/mofdiff/data/test/5-10'
_cell_length_a 27.16100
_cell_length_b 27.16100
_cell_length_c 26.43100
_cell_angle_alpha 90.00000
_cell_angle_beta  90.00000
_cell_angle_gamma 90.00000
_space_group_name_H-M_alt      'P 1'


loop_
_space_group_symop_operation_xyz
  'x, y, z' 

loop_
_atom_site_label
_atom_site_fract_x
_atom_site_fract_y
_atom_site_fract_z
_atom_site_type_symbol
Cu0        0.5      0.0      0.0    Cu
Cl1    0.55064  0.03711   0.0538    Cl
Cl2    0.44936  0.96289   0.0538    Cl
Cl3    0.55064  0.96289   0.9462    Cl
Cl4    0.44936  0.03711   0.9462    Cl
Cl5     0.5573   0.3157   0.4657    Cl
Cl6     0.5363   0.3117   0.4423    Cl
Cu7     0.4788   0.3106   0.4735    Cu
Cu8     0.5212   0.3106   0.5265    Cu
Cl9     0.4359   0.2521   0.4333    Cl
Cl10    0.5305   0.3556   0.5978    Cl
Cl11    0.4695   0.3556   0.4022    Cl
Cl12    0.4427   0.3157   0.5343    Cl
Cl13    0.4637   0.3117   0.5577    Cl
Cl14    0.5641   0.2521   0.5667    Cl
N15     0.2766   0.2766   0.2728     N
O16    0.31343  0.25707  0.25422     O
O17      0.258    0.258   0.3129     O
O18    0.25707  0.31343  0.25422     O
C19     0.5338   0.1652   0.4595     C
N20     0.5173   0.1601   0.5121     N
H21     0.5375   0.1814   0.5295     H
H22     0.5278   0.1291    0.521     H
C23     0.4662   0.1652   0.5405     C
N24     0.4827   0.1601   0.4879     N
H25     0.4625   0.1814   0.4705     H
H26     0.4722   0.1291    0.479     H
Cu27       0.0      0.0      0.5    Cu
Cl28    0.9511   0.0489   0.4569    Cl
Cl29    0.0489   0.0489   0.5431    Cl
Cl30    0.0489   0.9511   0.4569    Cl
Cl31    0.9511   0.9511   0.5431    Cl
N32     0.3793   0.3793   0.1258     N
H33     0.4065   0.3668    0.113     H
N34     0.3143   0.3742   0.1826     N
H35     0.3015   0.4013     0.17     H
H36     0.2995   0.3588   0.2076     H
C37     0.3564   0.3564   0.1638     C
H38     0.3668   0.4065    0.113     H
N39     0.3742   0.3143   0.1826     N
H40     0.4013   0.3015     0.17     H
H41     0.3588   0.2995   0.2076     H
N42     0.1753   0.1753   0.4736     N
H43     0.2062   0.1665   0.4693     H
N44     0.0962   0.1584    0.495     N
H45     0.0893   0.1897   0.4902     H
H46     0.0728   0.1379   0.5045     H
C47      0.142    0.142   0.4879     C
H48     0.1665   0.2062   0.4693     H
N49     0.1584   0.0962    0.495     N
H50     0.1897   0.0893   0.4902     H
H51     0.1379   0.0728   0.5045     H
N52    0.13826   0.3866   0.3783     N
H53     0.1265    0.375    0.407     H
H54     0.1265   0.4141   0.3657     H
N55     0.1925    0.321   0.3719     N
H56     0.2162   0.3058   0.3554     H
H57     0.1812   0.3085   0.4004     H
N58     0.1919   0.3802   0.3109     N
H59     0.2155   0.3644    0.295     H
H60     0.1801   0.4078   0.2982     H
C61     0.1739   0.3624   0.3541     C
C62     0.3562   0.0155   0.3588     C
C63     0.3834   0.9303   0.3771     C
N64     0.3897   0.9745   0.3452     N
H65     0.3844    0.966    0.312     H
H66     0.4217   0.9852   0.3479     H
N67     0.3448   0.9626   0.3557     N
H68     0.3401   0.9543   0.3223     H
H69     0.3157   0.9568   0.3725     H
loop_
_geom_bond_atom_site_label_1
_geom_bond_atom_site_label_2
_geom_bond_distance
_geom_bond_site_symmetry_2
_ccdc_geom_bond_type
H21   Cl14   2.27513       .     S
Cl14  H21    2.27513       .     S
H25   Cl9    2.27513       .     S
Cl9   H25    2.27513       .     S
H36   O18    2.08926       .     S
O18   H36    2.08926       .     S
H41   O16    2.08926       .     S
O16   H41    2.08926       .     S
H46   Cl29   2.70292       .     S
Cl29  H46    2.70292       .     S
H51   Cl29   2.70292       .     S
Cl29  H51    2.70292       .     S
H56   O17    2.05825       .     S
O17   H56    2.05825       .     S
H59   O18    2.08642       .     S
O18   H59    2.08642       .     S
Cu0   Cl1    2.22032       .     S
Cl1   Cu0    2.22032       .     S
Cu0   Cl2    2.22032   1_545     S
Cl2   Cu0    2.22032   1_565     S
Cu0   Cl3    2.22032   1_544     S
Cl3   Cu0    2.22032   1_566     S
Cu0   Cl4    2.22032   1_554     S
Cl4   Cu0    2.22032   1_556     S
Cl5   Cl6    0.84833       .     S
Cl6   Cl5    0.84833       .     S
Cl5   Cu7    2.14656       .     S
Cu7   Cl5    2.14656       .     S
Cl5   Cu8    1.88761       .     S
Cu8   Cl5    1.88761       .     S
Cl6   Cu7    1.76636       .     S
Cu7   Cl6    1.76636       .     S
Cl6   Cu8    2.26316       .     S
Cu8   Cl6    2.26316       .     S
Cu7   Cu8    1.81345       .     S
Cu8   Cu7    1.81345       .     S
Cu7   Cl9    2.23860       .     S
Cl9   Cu7    2.23860       .     S
Cu7   Cl11   2.26034       .     S
Cl11  Cu7    2.26034       .     S
Cu7   Cl12   1.88761       .     S
Cl12  Cu7    1.88761       .     S
Cu7   Cl13   2.26316       .     S
Cl13  Cu7    2.26316       .     S
Cu8   Cl10   2.26034       .     S
Cl10  Cu8    2.26034       .     S
Cu8   Cl12   2.14656       .     S
Cl12  Cu8    2.14656       .     S
Cu8   Cl13   1.76636       .     S
Cl13  Cu8    1.76636       .     S
Cu8   Cl14   2.23860       .     S
Cl14  Cu8    2.23860       .     S
Cl12  Cl13   0.84833       .     S
Cl13  Cl12   0.84833       .     S
N15   O16    1.23419       .     S
O16   N15    1.23419       .     S
N15   O17    1.27820       .     S
O17   N15    1.27820       .     S
N15   O18    1.23419       .     S
O18   N15    1.23419       .     S
C19   N20    1.46727       .     S
N20   C19    1.46727       .     S
C19   N24    1.58398       .     S
N24   C19    1.58398       .     S
N20   H21    0.92045       .     S
H21   N20    0.92045       .     S
N20   H22    0.91958       .     S
H22   N20    0.91958       .     S
N20   C23    1.58398       .     S
C23   N20    1.58398       .     S
N20   N24    1.13679       .     S
N24   N20    1.13679       .     S
C23   N24    1.46727       .     S
N24   C23    1.46727       .     S
N24   H25    0.92045       .     S
H25   N24    0.92045       .     S
N24   H26    0.91957       .     S
H26   N24    0.91957       .     S
Cu27  Cl28   2.19677   1_455     S
Cl28  Cu27   2.19677   1_655     S
Cu27  Cl29   2.19677       .     S
Cl29  Cu27   2.19677       .     S
Cu27  Cl30   2.19677   1_545     S
Cl30  Cu27   2.19677   1_565     S
Cu27  Cl31   2.19677   1_445     S
Cl31  Cu27   2.19677   1_665     S
N32   H33    0.88064       .     S
H33   N32    0.88064       .     S
N32   C37    1.33511       .     S
C37   N32    1.33511       .     S
N32   H38    0.88064       .     S
H38   N32    0.88064       .     S
N34   H35    0.87953       .     S
H35   N34    0.87953       .     S
N34   H36    0.87930       .     S
H36   N34    0.87930       .     S
N34   C37    1.33723       .     S
C37   N34    1.33723       .     S
C37   N39    1.33723       .     S
N39   C37    1.33723       .     S
N39   H40    0.87953       .     S
H40   N39    0.87953       .     S
N39   H41    0.87930       .     S
H41   N39    0.87930       .     S
N42   H43    0.88002       .     S
H43   N42    0.88002       .     S
N42   C47    1.33378       .     S
C47   N42    1.33378       .     S
N42   H48    0.88002       .     S
H48   N42    0.88002       .     S
N44   H45    0.87975       .     S
H45   N44    0.87975       .     S
N44   H46    0.88149       .     S
H46   N44    0.88149       .     S
N44   C47    1.33458       .     S
C47   N44    1.33458       .     S
C47   N49    1.33458       .     S
N49   C47    1.33458       .     S
N49   H50    0.87975       .     S
H50   N49    0.87975       .     S
N49   H51    0.88149       .     S
H51   N49    0.88149       .     S
N52   H53    0.88132       .     S
H53   N52    0.88132       .     S
N52   H54    0.87797       .     S
H54   N52    0.87797       .     S
N52   C61    1.33350       .     S
C61   N52    1.33350       .     S
N55   H56    0.88034       .     S
H56   N55    0.88034       .     S
N55   H57    0.88142       .     S
H57   N55    0.88142       .     S
N55   C61    1.31946       .     S
C61   N55    1.31946       .     S
N58   H59    0.87844       .     S
H59   N58    0.87844       .     S
N58   H60    0.88168       .     S
H60   N58    0.88168       .     S
N58   C61    1.33286       .     S
C61   N58    1.33286       .     S
C62   N64    1.48230   1_545     S
N64   C62    1.48230   1_565     S
C62   N67    1.47208   1_545     S
N67   C62    1.47208   1_565     S
C63   N64    1.47696       .     S
N64   C63    1.47696       .     S
C63   N67    1.47945       .     S
N67   C63    1.47945       .     S
N64   H65    0.91872       .     S
H65   N64    0.91872       .     S
N64   H66    0.91923       .     S
H66   N64    0.91923       .     S
N64   N67    1.29180       .     S
N67   N64    1.29180       .     S
N67   H68    0.92002       .     S
H68   N67    0.92002       .     S
N67   H69    0.92016       .     S
H69   N67    0.92016       .     S
Cl14  H21    2.27513       .     S
H21   Cl14   2.27513       .     S
Cl9   H25    2.27513       .     S
H25   Cl9    2.27513       .     S
O18   H36    2.08926       .     S
H36   O18    2.08926       .     S
O16   H41    2.08926       .     S
H41   O16    2.08926       .     S
Cl29  H46    2.70292       .     S
H46   Cl29   2.70292       .     S
Cl29  H51    2.70292       .     S
H51   Cl29   2.70292       .     S
O17   H56    2.05825       .     S
H56   O17    2.05825       .     S
O18   H59    2.08642       .     S
H59   O18    2.08642       .     S
Cl1   Cu0    2.22032       .     S
Cu0   Cl1    2.22032       .     S
Cl2   Cu0    2.22032   1_565     S
Cu0   Cl2    2.22032   1_545     S
Cl3   Cu0    2.22032   1_566     S
Cu0   Cl3    2.22032   1_544     S
Cl4   Cu0    2.22032   1_556     S
Cu0   Cl4    2.22032   1_554     S
Cl6   Cl5    0.84833       .     S
Cl5   Cl6    0.84833       .     S
Cu7   Cl5    2.14656       .     S
Cl5   Cu7    2.14656       .     S
Cu8   Cl5    1.88761       .     S
Cl5   Cu8    1.88761       .     S
Cu7   Cl6    1.76636       .     S
Cl6   Cu7    1.76636       .     S
Cu8   Cl6    2.26316       .     S
Cl6   Cu8    2.26316       .     S
Cu8   Cu7    1.81345       .     S
Cu7   Cu8    1.81345       .     S
Cl9   Cu7    2.23860       .     S
Cu7   Cl9    2.23860       .     S
Cl11  Cu7    2.26034       .     S
Cu7   Cl11   2.26034       .     S
Cl12  Cu7    1.88761       .     S
Cu7   Cl12   1.88761       .     S
Cl13  Cu7    2.26316       .     S
Cu7   Cl13   2.26316       .     S
Cl10  Cu8    2.26034       .     S
Cu8   Cl10   2.26034       .     S
Cl12  Cu8    2.14656       .     S
Cu8   Cl12   2.14656       .     S
Cl13  Cu8    1.76636       .     S
Cu8   Cl13   1.76636       .     S
Cl14  Cu8    2.23860       .     S
Cu8   Cl14   2.23860       .     S
Cl13  Cl12   0.84833       .     S
Cl12  Cl13   0.84833       .     S
O16   N15    1.23419       .     S
N15   O16    1.23419       .     S
O17   N15    1.27820       .     S
N15   O17    1.27820       .     S
O18   N15    1.23419       .     S
N15   O18    1.23419       .     S
N20   C19    1.46727       .     S
C19   N20    1.46727       .     S
N24   C19    1.58398       .     S
C19   N24    1.58398       .     S
H21   N20    0.92045       .     S
N20   H21    0.92045       .     S
H22   N20    0.91958       .     S
N20   H22    0.91958       .     S
C23   N20    1.58398       .     S
N20   C23    1.58398       .     S
N24   N20    1.13679       .     S
N20   N24    1.13679       .     S
N24   C23    1.46727       .     S
C23   N24    1.46727       .     S
H25   N24    0.92045       .     S
N24   H25    0.92045       .     S
H26   N24    0.91957       .     S
N24   H26    0.91957       .     S
Cl28  Cu27   2.19677   1_655     S
Cu27  Cl28   2.19677   1_455     S
Cl29  Cu27   2.19677       .     S
Cu27  Cl29   2.19677       .     S
Cl30  Cu27   2.19677   1_565     S
Cu27  Cl30   2.19677   1_545     S
Cl31  Cu27   2.19677   1_665     S
Cu27  Cl31   2.19677   1_445     S
H33   N32    0.88064       .     S
N32   H33    0.88064       .     S
C37   N32    1.33511       .     S
N32   C37    1.33511       .     S
H38   N32    0.88064       .     S
N32   H38    0.88064       .     S
H35   N34    0.87953       .     S
N34   H35    0.87953       .     S
H36   N34    0.87930       .     S
N34   H36    0.87930       .     S
C37   N34    1.33723       .     S
N34   C37    1.33723       .     S
N39   C37    1.33723       .     S
C37   N39    1.33723       .     S
H40   N39    0.87953       .     S
N39   H40    0.87953       .     S
H41   N39    0.87930       .     S
N39   H41    0.87930       .     S
H43   N42    0.88002       .     S
N42   H43    0.88002       .     S
C47   N42    1.33378       .     S
N42   C47    1.33378       .     S
H48   N42    0.88002       .     S
N42   H48    0.88002       .     S
H45   N44    0.87975       .     S
N44   H45    0.87975       .     S
H46   N44    0.88149       .     S
N44   H46    0.88149       .     S
C47   N44    1.33458       .     S
N44   C47    1.33458       .     S
N49   C47    1.33458       .     S
C47   N49    1.33458       .     S
H50   N49    0.87975       .     S
N49   H50    0.87975       .     S
H51   N49    0.88149       .     S
N49   H51    0.88149       .     S
H53   N52    0.88132       .     S
N52   H53    0.88132       .     S
H54   N52    0.87797       .     S
N52   H54    0.87797       .     S
C61   N52    1.33350       .     S
N52   C61    1.33350       .     S
H56   N55    0.88034       .     S
N55   H56    0.88034       .     S
H57   N55    0.88142       .     S
N55   H57    0.88142       .     S
C61   N55    1.31946       .     S
N55   C61    1.31946       .     S
H59   N58    0.87844       .     S
N58   H59    0.87844       .     S
H60   N58    0.88168       .     S
N58   H60    0.88168       .     S
C61   N58    1.33286       .     S
N58   C61    1.33286       .     S
N64   C62    1.48230   1_565     S
C62   N64    1.48230   1_545     S
N67   C62    1.47208   1_565     S
C62   N67    1.47208   1_545     S
N64   C63    1.47696       .     S
C63   N64    1.47696       .     S
N67   C63    1.47945       .     S
C63   N67    1.47945       .     S
H65   N64    0.91872       .     S
N64   H65    0.91872       .     S
H66   N64    0.91923       .     S
N64   H66    0.91923       .     S
N67   N64    1.29180       .     S
N64   N67    1.29180       .     S
H68   N67    0.92002       .     S
N67   H68    0.92002       .     S
H69   N67    0.92016       .     S
N67   H69    0.92016       .     S
