data_I
_chemical_name_common  '/data/user2/wty/HOF/MOFDiff/mofdiff/data/test/5-12'
_cell_length_a 26.81450
_cell_length_b 26.81450
_cell_length_c 26.81450
_cell_angle_alpha 90.00000
_cell_angle_beta  90.00000
_cell_angle_gamma 90.00000
_space_group_name_H-M_alt      'P 1'


loop_
_space_group_symop_operation_xyz
  'x, y, z' 

loop_
_atom_site_label
_atom_site_fract_x
_atom_site_fract_y
_atom_site_fract_z
_atom_site_type_symbol
C0      0.1429   0.6792   0.8571     C
N1      0.1812   0.6921   0.8806     N
H2      0.1993   0.7172   0.8699     H
H3      0.1899    0.676   0.9079     H
N4      0.1208   0.6418   0.8792     N
H5      0.1334   0.6293   0.9068     H
N6      0.1194   0.6921   0.8188     N
H7      0.1301   0.7172   0.8007     H
H8      0.0921    0.676   0.8101     H
H9      0.0932   0.6293   0.8666     H
N10     0.2208   0.7792   0.7792     N
O11     0.2398   0.7602   0.8169     O
O12     0.1831   0.7602   0.7602     O
O13     0.2398   0.8169   0.7602     O
loop_
_geom_bond_atom_site_label_1
_geom_bond_atom_site_label_2
_geom_bond_distance
_geom_bond_site_symmetry_2
_ccdc_geom_bond_type
H2    O11    2.12804       .     S
O11   H2     2.12804       .     S
H7    O12    2.12804       .     S
O12   H7     2.12804       .     S
C0    N1     1.25357       .     S
N1    C0     1.25357       .     S
C0    N4     1.30694       .     S
N4    C0     1.30694       .     S
C0    N6     1.25358       .     S
N6    C0     1.25358       .     S
N1    H2     0.87799       .     S
H2    N1     0.87799       .     S
N1    H3     0.88129       .     S
H3    N1     0.88129       .     S
N4    H5     0.87990       .     S
H5    N4     0.87990       .     S
N4    H9     0.87990       .     S
H9    N4     0.87990       .     S
N6    H7     0.87799       .     S
H7    N6     0.87799       .     S
N6    H8     0.88129       .     S
H8    N6     0.88129       .     S
N10   O11    1.24140       .     S
O11   N10    1.24140       .     S
N10   O12    1.24140       .     S
O12   N10    1.24140       .     S
N10   O13    1.24140       .     S
O13   N10    1.24140       .     S
O11   H2     2.12804       .     S
H2    O11    2.12804       .     S
O12   H7     2.12804       .     S
H7    O12    2.12804       .     S
N1    C0     1.25357       .     S
C0    N1     1.25357       .     S
N4    C0     1.30694       .     S
C0    N4     1.30694       .     S
N6    C0     1.25358       .     S
C0    N6     1.25358       .     S
H2    N1     0.87799       .     S
N1    H2     0.87799       .     S
H3    N1     0.88129       .     S
N1    H3     0.88129       .     S
H5    N4     0.87990       .     S
N4    H5     0.87990       .     S
H9    N4     0.87990       .     S
N4    H9     0.87990       .     S
H7    N6     0.87799       .     S
N6    H7     0.87799       .     S
H8    N6     0.88129       .     S
N6    H8     0.88129       .     S
O11   N10    1.24140       .     S
N10   O11    1.24140       .     S
O12   N10    1.24140       .     S
N10   O12    1.24140       .     S
O13   N10    1.24140       .     S
N10   O13    1.24140       .     S
