data_I
_chemical_name_common  '/data/user2/wty/HOF/MOFDiff/mofdiff/data/test/5-3'
_cell_length_a 26.86090
_cell_length_b 26.86090
_cell_length_c 26.86090
_cell_angle_alpha 90.00000
_cell_angle_beta  90.00000
_cell_angle_gamma 90.00000
_space_group_name_H-M_alt      'P 1'


loop_
_space_group_symop_operation_xyz
  'x, y, z' 

loop_
_atom_site_label
_atom_site_fract_x
_atom_site_fract_y
_atom_site_fract_z
_atom_site_type_symbol
C0      0.8569   0.3283   0.1431     C
N1      0.8148   0.3111   0.1249     N
H2      0.8037   0.3221   0.0961     H
H3      0.7977   0.2886   0.1416     H
N4       0.882   0.3618    0.118     N
H5      0.8707   0.3726   0.0892     H
N6      0.8751   0.3111   0.1852     N
H7      0.9039   0.3221   0.1963     H
H8      0.8584   0.2886   0.2023     H
H9      0.9108   0.3726   0.1293     H
N10     0.7768   0.2232   0.2232     N
O11     0.7536   0.2464   0.1895     O
O12     0.8105   0.2464   0.2464     O
O13     0.7536   0.1895   0.2464     O
loop_
_geom_bond_atom_site_label_1
_geom_bond_atom_site_label_2
_geom_bond_distance
_geom_bond_site_symmetry_2
_ccdc_geom_bond_type
H3    O11    2.08411       .     S
O11   H3     2.08411       .     S
H8    O12    2.08411       .     S
O12   H8     2.08411       .     S
C0    N1     1.31577       .     S
N1    C0     1.31577       .     S
C0    N4     1.31104       .     S
N4    C0     1.31104       .     S
C0    N6     1.31577       .     S
N6    C0     1.31577       .     S
N1    H2     0.88014       .     S
H2    N1     0.88014       .     S
N1    H3     0.88174       .     S
H3    N1     0.88174       .     S
N4    H5     0.88019       .     S
H5    N4     0.88019       .     S
N4    H9     0.88019       .     S
H9    N4     0.88019       .     S
N6    H7     0.88014       .     S
H7    N6     0.88014       .     S
N6    H8     0.88174       .     S
H8    N6     0.88174       .     S
N10   O11    1.26337       .     S
O11   N10    1.26337       .     S
N10   O12    1.26337       .     S
O12   N10    1.26337       .     S
N10   O13    1.26337       .     S
O13   N10    1.26337       .     S
O11   H3     2.08411       .     S
H3    O11    2.08411       .     S
O12   H8     2.08411       .     S
H8    O12    2.08411       .     S
N1    C0     1.31577       .     S
C0    N1     1.31577       .     S
N4    C0     1.31104       .     S
C0    N4     1.31104       .     S
N6    C0     1.31577       .     S
C0    N6     1.31577       .     S
H2    N1     0.88014       .     S
N1    H2     0.88014       .     S
H3    N1     0.88174       .     S
N1    H3     0.88174       .     S
H5    N4     0.88019       .     S
N4    H5     0.88019       .     S
H9    N4     0.88019       .     S
N4    H9     0.88019       .     S
H7    N6     0.88014       .     S
N6    H7     0.88014       .     S
H8    N6     0.88174       .     S
N6    H8     0.88174       .     S
O11   N10    1.26337       .     S
N10   O11    1.26337       .     S
O12   N10    1.26337       .     S
N10   O12    1.26337       .     S
O13   N10    1.26337       .     S
N10   O13    1.26337       .     S
