data_I
_chemical_name_common  '/data/user2/wty/HOF/MOFDiff/mofdiff/data/test/5-4'
_cell_length_a 26.98000
_cell_length_b 26.98000
_cell_length_c 26.98000
_cell_angle_alpha 90.00000
_cell_angle_beta  90.00000
_cell_angle_gamma 90.00000
_space_group_name_H-M_alt      'P 1'


loop_
_space_group_symop_operation_xyz
  'x, y, z' 

loop_
_atom_site_label
_atom_site_fract_x
_atom_site_fract_y
_atom_site_fract_z
_atom_site_type_symbol
N0      0.7756   0.2244   0.2244     N
O1      0.7566   0.2434   0.1875     O
O2      0.8125   0.2434   0.2434     O
O3      0.7566   0.1875   0.2434     O
C4      0.8595   0.3309   0.1405     C
N5      0.8149   0.3114   0.1255     N
H6      0.8006   0.3223   0.0983     H
H7      0.8005   0.2879   0.1431     H
N8       0.881   0.3624    0.119     N
H9      0.8686   0.3748   0.0915     H
N10     0.8745   0.3114   0.1851     N
H11     0.9017   0.3223   0.1994     H
H12     0.8569   0.2879   0.1995     H
H13     0.9085   0.3748   0.1314     H
loop_
_geom_bond_atom_site_label_1
_geom_bond_atom_site_label_2
_geom_bond_distance
_geom_bond_site_symmetry_2
_ccdc_geom_bond_type
H7    O1     2.06865       .     S
O1    H7     2.06865       .     S
H12   O2     2.06865       .     S
O2    H12    2.06865       .     S
N0    O1     1.23154       .     S
O1    N0     1.23154       .     S
N0    O2     1.23154       .     S
O2    N0     1.23154       .     S
N0    O3     1.23154       .     S
O3    N0     1.23154       .     S
C4    N5     1.37424       .     S
N5    C4     1.37424       .     S
C4    N8     1.18120       .     S
N8    C4     1.18120       .     S
C4    N10    1.37424       .     S
N10   C4     1.37424       .     S
N5    H6     0.87971       .     S
H6    N5     0.87971       .     S
N5    H7     0.88228       .     S
H7    N5     0.88228       .     S
N8    H9     0.87997       .     S
H9    N8     0.87997       .     S
N8    H13    0.87997       .     S
H13   N8     0.87997       .     S
N10   H11    0.87971       .     S
H11   N10    0.87971       .     S
N10   H12    0.88228       .     S
H12   N10    0.88228       .     S
O1    H7     2.06865       .     S
H7    O1     2.06865       .     S
O2    H12    2.06865       .     S
H12   O2     2.06865       .     S
O1    N0     1.23154       .     S
N0    O1     1.23154       .     S
O2    N0     1.23154       .     S
N0    O2     1.23154       .     S
O3    N0     1.23154       .     S
N0    O3     1.23154       .     S
N5    C4     1.37424       .     S
C4    N5     1.37424       .     S
N8    C4     1.18120       .     S
C4    N8     1.18120       .     S
N10   C4     1.37424       .     S
C4    N10    1.37424       .     S
H6    N5     0.87971       .     S
N5    H6     0.87971       .     S
H7    N5     0.88228       .     S
N5    H7     0.88228       .     S
H9    N8     0.87997       .     S
N8    H9     0.87997       .     S
H13   N8     0.87997       .     S
N8    H13    0.87997       .     S
H11   N10    0.87971       .     S
N10   H11    0.87971       .     S
H12   N10    0.88228       .     S
N10   H12    0.88228       .     S
