data_I
_chemical_name_common  '/data/user2/wty/HOF/MOFDiff/mofdiff/data/test/5-6'
_cell_length_a 26.76540
_cell_length_b 26.76540
_cell_length_c 26.76540
_cell_angle_alpha 90.00000
_cell_angle_beta  90.00000
_cell_angle_gamma 90.00000
_space_group_name_H-M_alt      'P 1'


loop_
_space_group_symop_operation_xyz
  'x, y, z' 

loop_
_atom_site_label
_atom_site_fract_x
_atom_site_fract_y
_atom_site_fract_z
_atom_site_type_symbol
N0      0.2251   0.7749   0.7749     N
O1      0.2456   0.7544   0.8117     O
O2      0.1883   0.7544   0.7544     O
O3      0.2456   0.8117   0.7544     O
loop_
_geom_bond_atom_site_label_1
_geom_bond_atom_site_label_2
_geom_bond_distance
_geom_bond_site_symmetry_2
_ccdc_geom_bond_type
N0    O1     1.25391       .     S
O1    N0     1.25391       .     S
N0    O2     1.25391       .     S
O2    N0     1.25391       .     S
N0    O3     1.25391       .     S
O3    N0     1.25391       .     S
O1    N0     1.25391       .     S
N0    O1     1.25391       .     S
O2    N0     1.25391       .     S
N0    O2     1.25391       .     S
O3    N0     1.25391       .     S
N0    O3     1.25391       .     S
