data_I
_chemical_name_common  '/data/user2/wty/HOF/MOFDiff/mofdiff/data/test/5-7'
_cell_length_a 27.43320
_cell_length_b 27.43320
_cell_length_c 26.30290
_cell_angle_alpha 90.00000
_cell_angle_beta  90.00000
_cell_angle_gamma 90.00000
_space_group_name_H-M_alt      'P 1'


loop_
_space_group_symop_operation_xyz
  'x, y, z' 

loop_
_atom_site_label
_atom_site_fract_x
_atom_site_fract_y
_atom_site_fract_z
_atom_site_type_symbol
N0      0.1378   0.3874  0.37746     N
H1      0.1254   0.3757   0.4058     H
H2      0.1266   0.4148   0.3647     H
N3     0.19102  0.32273  0.37194     N
H4      0.2148   0.3076   0.3559     H
H5       0.179   0.3103   0.4001     H
N6     0.19182  0.38219  0.31125     N
H7      0.2156    0.367   0.2953     H
H8      0.1802   0.4097    0.299     H
C9     0.17357   0.3636  0.35388     C
C10     0.5315   0.1588   0.4641     C
N11     0.5189   0.1565   0.5181     N
H12     0.5319    0.128   0.5305     H
H13     0.5354   0.1816   0.5338     H
C14     0.4685   0.1588   0.5359     C
N15     0.4811   0.1565   0.4819     N
H16     0.4681    0.128   0.4695     H
H17     0.4646   0.1816   0.4662     H
C18     0.3552   0.0146   0.3579     C
C19     0.3815  0.93171   0.3768     C
N20     0.3911   0.9749   0.3461     N
H21     0.3888   0.9669   0.3122     H
H22     0.4222   0.9858   0.3522     H
N23     0.3443   0.9628    0.351     N
H24     0.3436   0.9555   0.3169     H
H25      0.314   0.9561   0.3643     H
N26     0.2808   0.2808   0.2793     N
O27    0.31464  0.25814  0.25635     O
O28    0.26039  0.26039    0.317     O
O29    0.25814  0.31464  0.25635     O
Co30       0.5      0.0      0.0    Co
Cl31    0.5476  0.04656  0.05125    Cl
Cl32    0.4524  0.95344  0.05125    Cl
Cl33    0.5476  0.95344  0.94875    Cl
Cl34    0.4524  0.04656  0.94875    Cl
Cl35    0.4456   0.3869   0.4566    Cl
Co36   0.47675  0.31164  0.47445    Co
Co37   0.52325  0.31164  0.52555    Co
Cl38    0.5548   0.3107   0.4566    Cl
Cl39    0.5343   0.2979   0.4413    Cl
Cl40    0.5544   0.3869   0.5434    Cl
Cl41    0.5632  0.25122  0.56965    Cl
Cl42    0.4452   0.3107   0.5434    Cl
Cl43    0.4657   0.2979   0.5587    Cl
Cl44    0.4368  0.25122  0.43035    Cl
loop_
_geom_bond_atom_site_label_1
_geom_bond_atom_site_label_2
_geom_bond_distance
_geom_bond_site_symmetry_2
_ccdc_geom_bond_type
H4    O28    2.07086       .     S
O28   H4     2.07086       .     S
H7    O29    2.11536       .     S
O29   H7     2.11536       .     S
H13   Cl41   2.26241       .     S
Cl41  H13    2.26241       .     S
H17   Cl44   2.26241       .     S
Cl44  H17    2.26241       .     S
N0    H1     0.88000       .     S
H1    N0     0.88000       .     S
N0    H2     0.87867       .     S
H2    N0     0.87867       .     S
N0    C9     1.33187       .     S
C9    N0     1.33187       .     S
N3    H4     0.88082       .     S
H4    N3     0.88082       .     S
N3    H5     0.87956       .     S
H5    N3     0.87956       .     S
N3    C9     1.30839       .     S
C9    N3     1.30839       .     S
N6    H7     0.88047       .     S
H7    N6     0.88047       .     S
N6    H8     0.88034       .     S
H8    N6     0.88034       .     S
N6    C9     1.32967       .     S
C9    N6     1.32967       .     S
C10   N11    1.46317       .     S
N11   C10    1.46317       .     S
C10   N15    1.46112       .     S
N15   C10    1.46112       .     S
N11   H12    0.91916       .     S
H12   N11    0.91916       .     S
N11   H13    0.92171       .     S
H13   N11    0.92171       .     S
N11   C14    1.46112       .     S
C14   N11    1.46112       .     S
N11   N15    1.40781       .     S
N15   N11    1.40781       .     S
C14   N15    1.46317       .     S
N15   C14    1.46317       .     S
N15   H16    0.91916       .     S
H16   N15    0.91916       .     S
N15   H17    0.92171       .     S
H17   N15    0.92171       .     S
C18   N20    1.50080   1_545     S
N20   C18    1.50080   1_565     S
C18   N23    1.46346   1_545     S
N23   C18    1.46346   1_565     S
C19   N20    1.45783       .     S
N20   C19    1.45783       .     S
C19   N23    1.49312       .     S
N23   C19    1.49312       .     S
N20   H21    0.92044       .     S
H21   N20    0.92044       .     S
N20   H22    0.91818       .     S
H22   N20    0.91818       .     S
N20   N23    1.33234       .     S
N23   N20    1.33234       .     S
N23   H24    0.91921       .     S
H24   N23    0.91921       .     S
N23   H25    0.92038       .     S
H25   N23    0.92038       .     S
N26   O27    1.26990       .     S
O27   N26    1.26990       .     S
N26   O28    1.26898       .     S
O28   N26    1.26898       .     S
N26   O29    1.26990       .     S
O29   N26    1.26990       .     S
Co30  Cl31   2.27020       .     S
Cl31  Co30   2.27020       .     S
Co30  Cl32   2.27020   1_545     S
Cl32  Co30   2.27020   1_565     S
Co30  Cl33   2.27020   1_544     S
Cl33  Co30   2.27020   1_566     S
Co30  Cl34   2.27020   1_554     S
Cl34  Co30   2.27020   1_556     S
Cl35  Co36   2.28328       .     S
Co36  Cl35   2.28328       .     S
Co36  Co37   1.85305       .     S
Co37  Co36   1.85305       .     S
Co36  Cl38   2.19218       .     S
Cl38  Co36   2.19218       .     S
Co36  Cl39   1.84253       .     S
Cl39  Co36   1.84253       .     S
Co36  Cl42   2.00969       .     S
Cl42  Co36   2.00969       .     S
Co36  Cl43   2.26820       .     S
Cl43  Co36   2.26820       .     S
Co36  Cl44   2.30086       .     S
Cl44  Co36   2.30086       .     S
Co37  Cl38   2.00969       .     S
Cl38  Co37   2.00969       .     S
Co37  Cl39   2.26820       .     S
Cl39  Co37   2.26820       .     S
Co37  Cl40   2.28328       .     S
Cl40  Co37   2.28328       .     S
Co37  Cl41   2.30086       .     S
Cl41  Co37   2.30086       .     S
Co37  Cl42   2.19218       .     S
Cl42  Co37   2.19218       .     S
Co37  Cl43   1.84253       .     S
Cl43  Co37   1.84253       .     S
Cl38  Cl39   0.77558       .     S
Cl39  Cl38   0.77558       .     S
Cl42  Cl43   0.77558       .     S
Cl43  Cl42   0.77558       .     S
O28   H4     2.07086       .     S
H4    O28    2.07086       .     S
O29   H7     2.11536       .     S
H7    O29    2.11536       .     S
Cl41  H13    2.26241       .     S
H13   Cl41   2.26241       .     S
Cl44  H17    2.26241       .     S
H17   Cl44   2.26241       .     S
H1    N0     0.88000       .     S
N0    H1     0.88000       .     S
H2    N0     0.87867       .     S
N0    H2     0.87867       .     S
C9    N0     1.33187       .     S
N0    C9     1.33187       .     S
H4    N3     0.88082       .     S
N3    H4     0.88082       .     S
H5    N3     0.87956       .     S
N3    H5     0.87956       .     S
C9    N3     1.30839       .     S
N3    C9     1.30839       .     S
H7    N6     0.88047       .     S
N6    H7     0.88047       .     S
H8    N6     0.88034       .     S
N6    H8     0.88034       .     S
C9    N6     1.32967       .     S
N6    C9     1.32967       .     S
N11   C10    1.46317       .     S
C10   N11    1.46317       .     S
N15   C10    1.46112       .     S
C10   N15    1.46112       .     S
H12   N11    0.91916       .     S
N11   H12    0.91916       .     S
H13   N11    0.92171       .     S
N11   H13    0.92171       .     S
C14   N11    1.46112       .     S
N11   C14    1.46112       .     S
N15   N11    1.40781       .     S
N11   N15    1.40781       .     S
N15   C14    1.46317       .     S
C14   N15    1.46317       .     S
H16   N15    0.91916       .     S
N15   H16    0.91916       .     S
H17   N15    0.92171       .     S
N15   H17    0.92171       .     S
N20   C18    1.50080   1_565     S
C18   N20    1.50080   1_545     S
N23   C18    1.46346   1_565     S
C18   N23    1.46346   1_545     S
N20   C19    1.45783       .     S
C19   N20    1.45783       .     S
N23   C19    1.49312       .     S
C19   N23    1.49312       .     S
H21   N20    0.92044       .     S
N20   H21    0.92044       .     S
H22   N20    0.91818       .     S
N20   H22    0.91818       .     S
N23   N20    1.33234       .     S
N20   N23    1.33234       .     S
H24   N23    0.91921       .     S
N23   H24    0.91921       .     S
H25   N23    0.92038       .     S
N23   H25    0.92038       .     S
O27   N26    1.26990       .     S
N26   O27    1.26990       .     S
O28   N26    1.26898       .     S
N26   O28    1.26898       .     S
O29   N26    1.26990       .     S
N26   O29    1.26990       .     S
Cl31  Co30   2.27020       .     S
Co30  Cl31   2.27020       .     S
Cl32  Co30   2.27020   1_565     S
Co30  Cl32   2.27020   1_545     S
Cl33  Co30   2.27020   1_566     S
Co30  Cl33   2.27020   1_544     S
Cl34  Co30   2.27020   1_556     S
Co30  Cl34   2.27020   1_554     S
Co36  Cl35   2.28328       .     S
Cl35  Co36   2.28328       .     S
Co37  Co36   1.85305       .     S
Co36  Co37   1.85305       .     S
Cl38  Co36   2.19218       .     S
Co36  Cl38   2.19218       .     S
Cl39  Co36   1.84253       .     S
Co36  Cl39   1.84253       .     S
Cl42  Co36   2.00969       .     S
Co36  Cl42   2.00969       .     S
Cl43  Co36   2.26820       .     S
Co36  Cl43   2.26820       .     S
Cl44  Co36   2.30086       .     S
Co36  Cl44   2.30086       .     S
Cl38  Co37   2.00969       .     S
Co37  Cl38   2.00969       .     S
Cl39  Co37   2.26820       .     S
Co37  Cl39   2.26820       .     S
Cl40  Co37   2.28328       .     S
Co37  Cl40   2.28328       .     S
Cl41  Co37   2.30086       .     S
Co37  Cl41   2.30086       .     S
Cl42  Co37   2.19218       .     S
Co37  Cl42   2.19218       .     S
Cl43  Co37   1.84253       .     S
Co37  Cl43   1.84253       .     S
Cl39  Cl38   0.77558       .     S
Cl38  Cl39   0.77558       .     S
Cl43  Cl42   0.77558       .     S
Cl42  Cl43   0.77558       .     S
