data_I
_chemical_name_common  '/data/user2/wty/HOF/MOFDiff/mofdiff/data/test/5-8'
_cell_length_a 27.02900
_cell_length_b 27.02900
_cell_length_c 27.10300
_cell_angle_alpha 90.00000
_cell_angle_beta  90.00000
_cell_angle_gamma 90.00000
_space_group_name_H-M_alt      'P 1'


loop_
_space_group_symop_operation_xyz
  'x, y, z' 

loop_
_atom_site_label
_atom_site_fract_x
_atom_site_fract_y
_atom_site_fract_z
_atom_site_type_symbol
Fe0     0.7771      0.0      0.0    Fe
Cl1     0.7393   0.0554   0.9391    Cl
Cl2      0.811   0.9545   0.9555    Cl
Cl3     0.7393   0.9446   0.0609    Cl
Cl4      0.811   0.0455   0.0445    Cl
O5      0.4796   0.9281    0.737     O
Na6        0.5      0.0   0.7269    Na
Na7        0.5      0.0   0.7731    Na
O8      0.4281   0.0204    0.763     O
S9      0.6162   0.0059   0.8015     S
S10     0.7992   0.0037  0.61738     S
S11     0.6161   0.7957  0.00459     S
O12     0.5719   0.9796    0.763     O
O13      0.616   0.0219   0.8606     O
O14     0.6335   0.0427   0.7734     O
O15     0.7778   0.9836   0.5807     O
O16     0.8465   0.0189   0.6059     O
O17     0.7699   0.0411   0.6433     O
O18     0.5738   0.7727   0.9836     O
O19     0.6382   0.7667   0.0443     O
O20     0.6092   0.8418   0.0216     O
C21        0.7   0.9542   0.8385     C
H22      0.697   0.9774   0.8646     H
C23      0.741   0.9242   0.8427     C
H24      0.769   0.9288   0.8634     H
C25     0.7316   0.8827   0.8074     C
C26     0.6872   0.8771   0.7796     C
H27     0.6812   0.8487   0.7598     H
C28     0.6553    0.913   0.7829     C
H29     0.6237   0.9078   0.7685     H
C30     0.6635   0.9575   0.8052     C
C31     0.7701   0.8411   0.8092     C
C32     0.8091   0.8444   0.7741     C
C33      0.768   0.8064   0.8466     C
C34     0.8049   0.8857   0.7378     C
C35     0.7822   0.8753   0.6913     C
H36     0.7707   0.8428   0.6849     H
C37     0.7762   0.9135   0.6528     C
H38     0.7566   0.9081   0.6242     H
C39     0.8001   0.9564   0.6608     C
C40     0.8253    0.965   0.7061     C
H41     0.8372   0.9973   0.7134     H
C42     0.8324   0.9284   0.7385     C
H43     0.8575   0.9321   0.7628     H
C44     0.7322    0.805   0.8851     C
C45     0.6876   0.7842   0.8765     C
H46     0.6803   0.7736    0.844     H
C47     0.6514   0.7775   0.9132     C
H48     0.6224   0.7582   0.9082     H
C49     0.6612   0.8005   0.9557     C
C50     0.6996   0.8291   0.9645     C
H51     0.7003   0.8488   0.9934     H
C52     0.7423   0.8307    0.929     C
H53     0.7727   0.8472   0.9356     H
S54     0.0059   0.6162   0.8015     S
S55     0.0037   0.7992  0.61738     S
S56     0.7957   0.6161  0.00459     S
O57     0.9796   0.5719    0.763     O
O58     0.0219    0.616   0.8606     O
O59     0.0427   0.6335   0.7734     O
O60     0.9836   0.7778   0.5807     O
O61     0.0189   0.8465   0.6059     O
O62     0.0411   0.7699   0.6433     O
O63     0.7727   0.5738   0.9836     O
O64     0.7667   0.6382   0.0443     O
O65     0.8418   0.6092   0.0216     O
C66     0.9542      0.7   0.8385     C
H67     0.9774    0.697   0.8646     H
C68     0.9242    0.741   0.8427     C
H69     0.9288    0.769   0.8634     H
C70     0.8827   0.7316   0.8074     C
C71     0.8771   0.6872   0.7796     C
H72     0.8487   0.6812   0.7598     H
C73      0.913   0.6553   0.7829     C
H74     0.9078   0.6237   0.7685     H
C75     0.9575   0.6635   0.8052     C
C76     0.8411   0.7701   0.8092     C
C77     0.8444   0.8091   0.7741     C
C78     0.8064    0.768   0.8466     C
C79     0.8857   0.8049   0.7378     C
C80     0.8753   0.7822   0.6913     C
H81     0.8428   0.7707   0.6849     H
C82     0.9135   0.7762   0.6528     C
H83     0.9081   0.7566   0.6242     H
C84     0.9564   0.8001   0.6608     C
C85      0.965   0.8253   0.7061     C
H86     0.9973   0.8372   0.7134     H
C87     0.9284   0.8324   0.7385     C
H88     0.9321   0.8575   0.7628     H
C89      0.805   0.7322   0.8851     C
C90     0.7842   0.6876   0.8765     C
H91     0.7736   0.6803    0.844     H
C92     0.7775   0.6514   0.9132     C
H93     0.7582   0.6224   0.9082     H
C94     0.8005   0.6612   0.9557     C
C95     0.8291   0.6996   0.9645     C
H96     0.8488   0.7003   0.9934     H
C97     0.8307   0.7423    0.929     C
H98     0.8472   0.7727   0.9356     H
Na99       0.0   0.7599      0.5    Na
Na100   0.7401      0.5      0.0    Na
Na101      0.5   0.7401      0.0    Na
Na102   0.7599      0.0      0.5    Na
O103    0.7273   0.9262   0.4836     O
O104    0.7273   0.0738   0.5164     O
O105    0.7778   0.0164   0.4193     O
Na106      0.0      0.5   0.7269    Na
Na107      0.0      0.5   0.7731    Na
O108       0.5      0.0   0.6484     O
H109    0.4906   0.9671   0.6363     H
H110    0.5094   0.0329   0.6363     H
O111    0.5204   0.0719    0.737     O
N112    0.6433   0.0056   0.3504     N
H113    0.6566   0.0095   0.3814     H
H114    0.6392   0.0364   0.3365     H
C115    0.6766   0.9745   0.3191     C
H116    0.7108   0.9861   0.3226     H
H117    0.6665   0.9773   0.2845     H
H118    0.6744   0.9399   0.3296     H
C119    0.5951   0.9793   0.3534     C
H120    0.5712   0.9997   0.3715     H
H121    0.5996   0.9477   0.3706     H
H122    0.5826    0.973     0.32     H
N123    0.7278   0.7278   0.7283     N
O124    0.6901   0.7459   0.7444     O
O125    0.7467   0.7467   0.6872     O
O126    0.7459   0.6901   0.7444     O
N127    0.6214   0.6214   0.8668     N
H128    0.6347   0.5949   0.8801     H
N129    0.6833   0.6243   0.8118     N
H130    0.7014   0.6375   0.7882     H
H131    0.6927   0.5964   0.8257     H
C132    0.6448   0.6448   0.8253     C
H133    0.5949   0.6347   0.8801     H
N134    0.6243   0.6833   0.8118     N
H135    0.6375   0.7014   0.7882     H
H136    0.5964   0.6927   0.8257     H
Fe137      0.0      0.0      0.5    Fe
Cl138   0.9527   0.9527   0.4536    Cl
Cl139   0.0473   0.0473   0.4536    Cl
Cl140   0.9527   0.0473   0.5464    Cl
Cl141   0.0473   0.9527   0.5464    Cl
Fe142      0.0      0.0   0.7739    Fe
Cl143    0.953    0.953   0.8221    Cl
Cl144    0.953    0.047   0.7278    Cl
Cl145    0.047    0.047   0.8221    Cl
Cl146    0.047    0.953   0.7278    Cl
N147    0.8626   0.6204   0.6172     N
H148    0.8725    0.633    0.589     H
H149    0.8761   0.5929   0.6283     H
N150    0.8126   0.6791   0.6243     N
H151    0.8239     0.69   0.5959     H
H152    0.7892   0.6956   0.6399     H
N153    0.8121   0.6283   0.6855     N
H154    0.7895   0.6464   0.7005     H
H155    0.8232   0.6011   0.6996     H
C156    0.8291   0.6418    0.642     C
O157     0.868      0.0      0.5     O
H158    0.8802   0.9897   0.4675     H
H159    0.8802   0.0103   0.5325     H
loop_
_geom_bond_atom_site_label_1
_geom_bond_atom_site_label_2
_geom_bond_distance
_geom_bond_site_symmetry_2
_ccdc_geom_bond_type
H130  O126   2.20845       .     S
O126  H130   2.20845       .     S
H135  O124   2.20845       .     S
O124  H135   2.20845       .     S
H152  O125   2.20697       .     S
O125  H152   2.20697       .     S
H154  O126   2.04930       .     S
O126  H154   2.04930       .     S
H158  Cl138  2.23206       .     S
Cl138 H158   2.23206       .     S
H159  Cl140  2.23206       .     S
Cl140 H159   2.23206       .     S
H159  O16    2.20029       .     S
O16   H159   2.20029       .     S
Fe0   Cl1    2.45163   1_554     S
Cl1   Fe0    2.45163   1_556     S
Fe0   Cl2    1.95107   1_544     S
Cl2   Fe0    1.95107   1_566     S
Fe0   Cl3    2.45163   1_545     S
Cl3   Fe0    2.45163   1_565     S
Fe0   Cl4    1.95107       .     S
Cl4   Fe0    1.95107       .     S
O5    Na6    2.03856   1_565     S
Na6   O5     2.03856   1_545     S
O5    Na7    2.24457   1_565     S
Na7   O5     2.24457   1_545     S
Na6   Na7    1.25216       .     S
Na7   Na6    1.25216       .     S
Na6   O8     2.24457       .     S
O8    Na6    2.24457       .     S
Na6   O12    2.24457   1_545     S
O12   Na6    2.24457   1_565     S
Na6   O108   2.12758       .     S
O108  Na6    2.12758       .     S
Na6   O111   2.03856       .     S
O111  Na6    2.03856       .     S
Na7   O8     2.03856       .     S
O8    Na7    2.03856       .     S
Na7   O12    2.03856   1_545     S
O12   Na7    2.03856   1_565     S
Na7   O111   2.24457       .     S
O111  Na7    2.24457       .     S
S9    O12    1.74008   1_545     S
O12   S9     1.74008   1_565     S
S9    O13    1.65915       .     S
O13   S9     1.65915       .     S
S9    O14    1.33718       .     S
O14   S9     1.33718       .     S
S9    C30    1.83192   1_545     S
C30   S9     1.83192   1_565     S
S10   O15    1.27202   1_545     S
O15   S10    1.27202   1_565     S
S10   O16    1.37844       .     S
O16   S10    1.37844       .     S
S10   O17    1.46376       .     S
O17   S10    1.46376       .     S
S10   C39    1.73781   1_545     S
C39   S10    1.73781   1_565     S
S11   O18    1.42032   1_554     S
O18   S11    1.42032   1_556     S
S11   O19    1.45930       .     S
O19   S11    1.45930       .     S
S11   O20    1.34161       .     S
O20   S11    1.34161       .     S
S11   C49    1.80516   1_554     S
C49   S11    1.80516   1_556     S
O15   Na102  2.28352   1_565     S
Na102 O15    2.28352   1_545     S
O18   Na101  2.22553   1_556     S
Na101 O18    2.22553   1_554     S
C21   H22    0.94878       .     S
H22   C21    0.94878       .     S
C21   C23    1.37788       .     S
C23   C21    1.37788       .     S
C21   C30    1.34008       .     S
C30   C21    1.34008       .     S
C23   H24    0.95025       .     S
H24   C23    0.95025       .     S
C23   C25    1.49603       .     S
C25   C23    1.49603       .     S
C25   C26    1.42507       .     S
C26   C25    1.42507       .     S
C25   C31    1.53283       .     S
C31   C25    1.53283       .     S
C26   H27    0.95054       .     S
H27   C26    0.95054       .     S
C26   C28    1.30115       .     S
C28   C26    1.30115       .     S
C28   H29    0.94952       .     S
H29   C28    0.94952       .     S
C28   C30    1.36423       .     S
C30   C28    1.36423       .     S
C31   C32    1.42273       .     S
C32   C31    1.42273       .     S
C31   C33    1.38217       .     S
C33   C31    1.38217       .     S
C32   C34    1.49230       .     S
C34   C32    1.49230       .     S
C32   C77    1.34933       .     S
C77   C32    1.34933       .     S
C33   C44    1.42358       .     S
C44   C33    1.42358       .     S
C33   C78    1.46783       .     S
C78   C33    1.46783       .     S
C34   C35    1.42962       .     S
C35   C34    1.42962       .     S
C34   C42    1.37291       .     S
C42   C34    1.37291       .     S
C35   H36    0.94782       .     S
H36   C35    0.94782       .     S
C35   C37    1.47688       .     S
C37   C35    1.47688       .     S
C37   H38    0.95016       .     S
H38   C37    0.95016       .     S
C37   C39    1.34494       .     S
C39   C37    1.34494       .     S
C39   C40    1.42316       .     S
C40   C39    1.42316       .     S
C40   H41    0.95121       .     S
H41   C40    0.95121       .     S
C40   C42    1.33663       .     S
C42   C40    1.33663       .     S
C42   H43    0.95080       .     S
H43   C42    0.95080       .     S
C44   C45    1.35041       .     S
C45   C44    1.35041       .     S
C44   C52    1.40454       .     S
C52   C44    1.40454       .     S
C45   H46    0.94706       .     S
H46   C45    0.94706       .     S
C45   C47    1.40696       .     S
C47   C45    1.40696       .     S
C47   H48    0.95126       .     S
H48   C47    0.95126       .     S
C47   C49    1.33546       .     S
C49   C47    1.33546       .     S
C49   C50    1.31595       .     S
C50   C49    1.31595       .     S
C50   H51    0.94731       .     S
H51   C50    0.94731       .     S
C50   C52    1.50321       .     S
C52   C50    1.50321       .     S
C52   H53    0.95187       .     S
H53   C52    0.95187       .     S
S54   O57    1.74008   1_455     S
O57   S54    1.74008   1_655     S
S54   O58    1.65915       .     S
O58   S54    1.65915       .     S
S54   O59    1.33718       .     S
O59   S54    1.33718       .     S
S54   C75    1.83193   1_455     S
C75   S54    1.83192   1_655     S
S55   O60    1.27202   1_455     S
O60   S55    1.27202   1_655     S
S55   O61    1.37844       .     S
O61   S55    1.37844       .     S
S55   O62    1.46376       .     S
O62   S55    1.46376       .     S
S55   C84    1.73781   1_455     S
C84   S55    1.73781   1_655     S
S56   O63    1.42032   1_554     S
O63   S56    1.42032   1_556     S
S56   O64    1.45930       .     S
O64   S56    1.45930       .     S
S56   O65    1.34161       .     S
O65   S56    1.34161       .     S
S56   C94    1.80516   1_554     S
C94   S56    1.80516   1_556     S
O57   Na106  2.24457   1_655     S
Na106 O57    2.24457   1_455     S
O57   Na107  2.03856   1_655     S
Na107 O57    2.03856   1_455     S
O60   Na99   2.28352   1_655     S
Na99  O60    2.28352   1_455     S
O63   Na100  2.22553   1_556     S
Na100 O63    2.22553   1_554     S
C66   H67    0.94878       .     S
H67   C66    0.94878       .     S
C66   C68    1.37788       .     S
C68   C66    1.37788       .     S
C66   C75    1.34008       .     S
C75   C66    1.34008       .     S
C68   H69    0.95025       .     S
H69   C68    0.95025       .     S
C68   C70    1.49603       .     S
C70   C68    1.49603       .     S
C70   C71    1.42507       .     S
C71   C70    1.42507       .     S
C70   C76    1.53283       .     S
C76   C70    1.53283       .     S
C71   H72    0.95054       .     S
H72   C71    0.95054       .     S
C71   C73    1.30115       .     S
C73   C71    1.30115       .     S
C73   H74    0.94952       .     S
H74   C73    0.94952       .     S
C73   C75    1.36423       .     S
C75   C73    1.36423       .     S
C76   C77    1.42273       .     S
C77   C76    1.42273       .     S
C76   C78    1.38217       .     S
C78   C76    1.38217       .     S
C77   C79    1.49230       .     S
C79   C77    1.49230       .     S
C78   C89    1.42358       .     S
C89   C78    1.42358       .     S
C79   C80    1.42962       .     S
C80   C79    1.42962       .     S
C79   C87    1.37291       .     S
C87   C79    1.37291       .     S
C80   H81    0.94782       .     S
H81   C80    0.94782       .     S
C80   C82    1.47688       .     S
C82   C80    1.47688       .     S
C82   H83    0.95016       .     S
H83   C82    0.95016       .     S
C82   C84    1.34494       .     S
C84   C82    1.34494       .     S
C84   C85    1.42316       .     S
C85   C84    1.42316       .     S
C85   H86    0.95121       .     S
H86   C85    0.95121       .     S
C85   C87    1.33663       .     S
C87   C85    1.33663       .     S
C87   H88    0.95080       .     S
H88   C87    0.95080       .     S
C89   C90    1.35041       .     S
C90   C89    1.35041       .     S
C89   C97    1.40454       .     S
C97   C89    1.40454       .     S
C90   H91    0.94706       .     S
H91   C90    0.94706       .     S
C90   C92    1.40696       .     S
C92   C90    1.40696       .     S
C92   H93    0.95126       .     S
H93   C92    0.95126       .     S
C92   C94    1.33546       .     S
C94   C92    1.33546       .     S
C94   C95    1.31595       .     S
C95   C94    1.31595       .     S
C95   H96    0.94731       .     S
H96   C95    0.94731       .     S
C95   C97    1.50321       .     S
C97   C95    1.50321       .     S
C97   H98    0.95187       .     S
H98   C97    0.95187       .     S
Na102 O103   2.22553   1_545     S
O103  Na102  2.22553   1_565     S
Na102 O104   2.22553       .     S
O104  Na102  2.22553       .     S
Na102 O105   2.28352       .     S
O105  Na102  2.28352       .     S
Na106 Na107  1.25216       .     S
Na107 Na106  1.25216       .     S
O108  H109   0.98126   1_545     S
H109  O108   0.98126   1_565     S
O108  H110   0.98126       .     S
H110  O108   0.98126       .     S
N112  H113   0.91993       .     S
H113  N112   0.91993       .     S
N112  H114   0.92046       .     S
H114  N112   0.92046       .     S
N112  C115   1.49546   1_545     S
C115  N112   1.49545   1_565     S
N112  C119   1.48634   1_545     S
C119  N112   1.48634   1_565     S
C115  H116   0.98072       .     S
H116  C115   0.98072       .     S
C115  H117   0.97962       .     S
H117  C115   0.97962       .     S
C115  H118   0.97935       .     S
H118  C115   0.97935       .     S
C119  H120   0.98081       .     S
H120  C119   0.98081       .     S
C119  H121   0.98062       .     S
H121  C119   0.98062       .     S
C119  H122   0.98113       .     S
H122  C119   0.98113       .     S
N123  O124   1.21165       .     S
O124  N123   1.21165       .     S
N123  O125   1.32770       .     S
O125  N123   1.32770       .     S
N123  O126   1.21165       .     S
O126  N123   1.21165       .     S
N127  H128   0.87875       .     S
H128  N127   0.87875       .     S
N127  C132   1.43707       .     S
C132  N127   1.43707       .     S
N127  H133   0.87875       .     S
H133  N127   0.87875       .     S
N129  H130   0.88077       .     S
H130  N129   0.88077       .     S
N129  H131   0.88043       .     S
H131  N129   0.88043       .     S
N129  C132   1.23441       .     S
C132  N129   1.23441       .     S
C132  N134   1.23441       .     S
N134  C132   1.23441       .     S
N134  H135   0.88077       .     S
H135  N134   0.88077       .     S
N134  H136   0.88043       .     S
H136  N134   0.88043       .     S
Fe137 Cl138  2.20238   1_445     S
Cl138 Fe137  2.20238   1_665     S
Fe137 Cl139  2.20238       .     S
Cl139 Fe137  2.20238       .     S
Fe137 Cl140  2.20238   1_455     S
Cl140 Fe137  2.20238   1_655     S
Fe137 Cl141  2.20238   1_545     S
Cl141 Fe137  2.20238   1_565     S
Fe142 Cl143  2.22131   1_445     S
Cl143 Fe142  2.22131   1_665     S
Fe142 Cl144  2.18832   1_455     S
Cl144 Fe142  2.18832   1_655     S
Fe142 Cl145  2.22131       .     S
Cl145 Fe142  2.22131       .     S
Fe142 Cl146  2.18832   1_545     S
Cl146 Fe142  2.18832   1_565     S
N147  H148   0.87849       .     S
H148  N147   0.87849       .     S
N147  H149   0.88099       .     S
H149  N147   0.88099       .     S
N147  C156   1.26738       .     S
C156  N147   1.26738       .     S
N150  H151   0.87895       .     S
H151  N150   0.87895       .     S
N150  H152   0.88187       .     S
H152  N150   0.88187       .     S
N150  C156   1.20227       .     S
C156  N150   1.20227       .     S
N153  H154   0.88191       .     S
H154  N153   0.88191       .     S
N153  H155   0.88122       .     S
H155  N153   0.88122       .     S
N153  C156   1.31692       .     S
C156  N153   1.31692       .     S
O157  H158   0.98089   1_545     S
H158  O157   0.98089   1_565     S
O157  H159   0.98089       .     S
H159  O157   0.98089       .     S
O126  H130   2.20845       .     S
H130  O126   2.20845       .     S
O124  H135   2.20845       .     S
H135  O124   2.20845       .     S
O125  H152   2.20697       .     S
H152  O125   2.20697       .     S
O126  H154   2.04930       .     S
H154  O126   2.04930       .     S
Cl138 H158   2.23206       .     S
H158  Cl138  2.23206       .     S
Cl140 H159   2.23206       .     S
H159  Cl140  2.23206       .     S
O16   H159   2.20029       .     S
H159  O16    2.20029       .     S
Cl1   Fe0    2.45163   1_556     S
Fe0   Cl1    2.45163   1_554     S
Cl2   Fe0    1.95107   1_566     S
Fe0   Cl2    1.95107   1_544     S
Cl3   Fe0    2.45163   1_565     S
Fe0   Cl3    2.45163   1_545     S
Cl4   Fe0    1.95107       .     S
Fe0   Cl4    1.95107       .     S
Na6   O5     2.03856   1_545     S
O5    Na6    2.03856   1_565     S
Na7   O5     2.24457   1_545     S
O5    Na7    2.24457   1_565     S
Na7   Na6    1.25216       .     S
Na6   Na7    1.25216       .     S
O8    Na6    2.24457       .     S
Na6   O8     2.24457       .     S
O12   Na6    2.24457   1_565     S
Na6   O12    2.24457   1_545     S
O108  Na6    2.12758       .     S
Na6   O108   2.12758       .     S
O111  Na6    2.03856       .     S
Na6   O111   2.03856       .     S
O8    Na7    2.03856       .     S
Na7   O8     2.03856       .     S
O12   Na7    2.03856   1_565     S
Na7   O12    2.03856   1_545     S
O111  Na7    2.24457       .     S
Na7   O111   2.24457       .     S
O12   S9     1.74008   1_565     S
S9    O12    1.74008   1_545     S
O13   S9     1.65915       .     S
S9    O13    1.65915       .     S
O14   S9     1.33718       .     S
S9    O14    1.33718       .     S
C30   S9     1.83192   1_565     S
S9    C30    1.83192   1_545     S
O15   S10    1.27202   1_565     S
S10   O15    1.27202   1_545     S
O16   S10    1.37844       .     S
S10   O16    1.37844       .     S
O17   S10    1.46376       .     S
S10   O17    1.46376       .     S
C39   S10    1.73781   1_565     S
S10   C39    1.73781   1_545     S
O18   S11    1.42032   1_556     S
S11   O18    1.42032   1_554     S
O19   S11    1.45930       .     S
S11   O19    1.45930       .     S
O20   S11    1.34161       .     S
S11   O20    1.34161       .     S
C49   S11    1.80516   1_556     S
S11   C49    1.80516   1_554     S
Na102 O15    2.28352   1_545     S
O15   Na102  2.28352   1_565     S
Na101 O18    2.22553   1_554     S
O18   Na101  2.22553   1_556     S
H22   C21    0.94878       .     S
C21   H22    0.94878       .     S
C23   C21    1.37788       .     S
C21   C23    1.37788       .     S
C30   C21    1.34008       .     S
C21   C30    1.34008       .     S
H24   C23    0.95025       .     S
C23   H24    0.95025       .     S
C25   C23    1.49603       .     S
C23   C25    1.49603       .     S
C26   C25    1.42507       .     S
C25   C26    1.42507       .     S
C31   C25    1.53283       .     S
C25   C31    1.53283       .     S
H27   C26    0.95054       .     S
C26   H27    0.95054       .     S
C28   C26    1.30115       .     S
C26   C28    1.30115       .     S
H29   C28    0.94952       .     S
C28   H29    0.94952       .     S
C30   C28    1.36423       .     S
C28   C30    1.36423       .     S
C32   C31    1.42273       .     S
C31   C32    1.42273       .     S
C33   C31    1.38217       .     S
C31   C33    1.38217       .     S
C34   C32    1.49230       .     S
C32   C34    1.49230       .     S
C77   C32    1.34933       .     S
C32   C77    1.34933       .     S
C44   C33    1.42358       .     S
C33   C44    1.42358       .     S
C78   C33    1.46783       .     S
C33   C78    1.46783       .     S
C35   C34    1.42962       .     S
C34   C35    1.42962       .     S
C42   C34    1.37291       .     S
C34   C42    1.37291       .     S
H36   C35    0.94782       .     S
C35   H36    0.94782       .     S
C37   C35    1.47688       .     S
C35   C37    1.47688       .     S
H38   C37    0.95016       .     S
C37   H38    0.95016       .     S
C39   C37    1.34494       .     S
C37   C39    1.34494       .     S
C40   C39    1.42316       .     S
C39   C40    1.42316       .     S
H41   C40    0.95121       .     S
C40   H41    0.95121       .     S
C42   C40    1.33663       .     S
C40   C42    1.33663       .     S
H43   C42    0.95080       .     S
C42   H43    0.95080       .     S
C45   C44    1.35041       .     S
C44   C45    1.35041       .     S
C52   C44    1.40454       .     S
C44   C52    1.40454       .     S
H46   C45    0.94706       .     S
C45   H46    0.94706       .     S
C47   C45    1.40696       .     S
C45   C47    1.40696       .     S
H48   C47    0.95126       .     S
C47   H48    0.95126       .     S
C49   C47    1.33546       .     S
C47   C49    1.33546       .     S
C50   C49    1.31595       .     S
C49   C50    1.31595       .     S
H51   C50    0.94731       .     S
C50   H51    0.94731       .     S
C52   C50    1.50321       .     S
C50   C52    1.50321       .     S
H53   C52    0.95187       .     S
C52   H53    0.95187       .     S
O57   S54    1.74008   1_655     S
S54   O57    1.74008   1_455     S
O58   S54    1.65915       .     S
S54   O58    1.65915       .     S
O59   S54    1.33718       .     S
S54   O59    1.33718       .     S
C75   S54    1.83192   1_655     S
S54   C75    1.83193   1_455     S
O60   S55    1.27202   1_655     S
S55   O60    1.27202   1_455     S
O61   S55    1.37844       .     S
S55   O61    1.37844       .     S
O62   S55    1.46376       .     S
S55   O62    1.46376       .     S
C84   S55    1.73781   1_655     S
S55   C84    1.73781   1_455     S
O63   S56    1.42032   1_556     S
S56   O63    1.42032   1_554     S
O64   S56    1.45930       .     S
S56   O64    1.45930       .     S
O65   S56    1.34161       .     S
S56   O65    1.34161       .     S
C94   S56    1.80516   1_556     S
S56   C94    1.80516   1_554     S
Na106 O57    2.24457   1_455     S
O57   Na106  2.24457   1_655     S
Na107 O57    2.03856   1_455     S
O57   Na107  2.03856   1_655     S
Na99  O60    2.28352   1_455     S
O60   Na99   2.28352   1_655     S
Na100 O63    2.22553   1_554     S
O63   Na100  2.22553   1_556     S
H67   C66    0.94878       .     S
C66   H67    0.94878       .     S
C68   C66    1.37788       .     S
C66   C68    1.37788       .     S
C75   C66    1.34008       .     S
C66   C75    1.34008       .     S
H69   C68    0.95025       .     S
C68   H69    0.95025       .     S
C70   C68    1.49603       .     S
C68   C70    1.49603       .     S
C71   C70    1.42507       .     S
C70   C71    1.42507       .     S
C76   C70    1.53283       .     S
C70   C76    1.53283       .     S
H72   C71    0.95054       .     S
C71   H72    0.95054       .     S
C73   C71    1.30115       .     S
C71   C73    1.30115       .     S
H74   C73    0.94952       .     S
C73   H74    0.94952       .     S
C75   C73    1.36423       .     S
C73   C75    1.36423       .     S
C77   C76    1.42273       .     S
C76   C77    1.42273       .     S
C78   C76    1.38217       .     S
C76   C78    1.38217       .     S
C79   C77    1.49230       .     S
C77   C79    1.49230       .     S
C89   C78    1.42358       .     S
C78   C89    1.42358       .     S
C80   C79    1.42962       .     S
C79   C80    1.42962       .     S
C87   C79    1.37291       .     S
C79   C87    1.37291       .     S
H81   C80    0.94782       .     S
C80   H81    0.94782       .     S
C82   C80    1.47688       .     S
C80   C82    1.47688       .     S
H83   C82    0.95016       .     S
C82   H83    0.95016       .     S
C84   C82    1.34494       .     S
C82   C84    1.34494       .     S
C85   C84    1.42316       .     S
C84   C85    1.42316       .     S
H86   C85    0.95121       .     S
C85   H86    0.95121       .     S
C87   C85    1.33663       .     S
C85   C87    1.33663       .     S
H88   C87    0.95080       .     S
C87   H88    0.95080       .     S
C90   C89    1.35041       .     S
C89   C90    1.35041       .     S
C97   C89    1.40454       .     S
C89   C97    1.40454       .     S
H91   C90    0.94706       .     S
C90   H91    0.94706       .     S
C92   C90    1.40696       .     S
C90   C92    1.40696       .     S
H93   C92    0.95126       .     S
C92   H93    0.95126       .     S
C94   C92    1.33546       .     S
C92   C94    1.33546       .     S
C95   C94    1.31595       .     S
C94   C95    1.31595       .     S
H96   C95    0.94731       .     S
C95   H96    0.94731       .     S
C97   C95    1.50321       .     S
C95   C97    1.50321       .     S
H98   C97    0.95187       .     S
C97   H98    0.95187       .     S
O103  Na102  2.22553   1_565     S
Na102 O103   2.22553   1_545     S
O104  Na102  2.22553       .     S
Na102 O104   2.22553       .     S
O105  Na102  2.28352       .     S
Na102 O105   2.28352       .     S
Na107 Na106  1.25216       .     S
Na106 Na107  1.25216       .     S
H109  O108   0.98126   1_565     S
O108  H109   0.98126   1_545     S
H110  O108   0.98126       .     S
O108  H110   0.98126       .     S
H113  N112   0.91993       .     S
N112  H113   0.91993       .     S
H114  N112   0.92046       .     S
N112  H114   0.92046       .     S
C115  N112   1.49545   1_565     S
N112  C115   1.49546   1_545     S
C119  N112   1.48634   1_565     S
N112  C119   1.48634   1_545     S
H116  C115   0.98072       .     S
C115  H116   0.98072       .     S
H117  C115   0.97962       .     S
C115  H117   0.97962       .     S
H118  C115   0.97935       .     S
C115  H118   0.97935       .     S
H120  C119   0.98081       .     S
C119  H120   0.98081       .     S
H121  C119   0.98062       .     S
C119  H121   0.98062       .     S
H122  C119   0.98113       .     S
C119  H122   0.98113       .     S
O124  N123   1.21165       .     S
N123  O124   1.21165       .     S
O125  N123   1.32770       .     S
N123  O125   1.32770       .     S
O126  N123   1.21165       .     S
N123  O126   1.21165       .     S
H128  N127   0.87875       .     S
N127  H128   0.87875       .     S
C132  N127   1.43707       .     S
N127  C132   1.43707       .     S
H133  N127   0.87875       .     S
N127  H133   0.87875       .     S
H130  N129   0.88077       .     S
N129  H130   0.88077       .     S
H131  N129   0.88043       .     S
N129  H131   0.88043       .     S
C132  N129   1.23441       .     S
N129  C132   1.23441       .     S
N134  C132   1.23441       .     S
C132  N134   1.23441       .     S
H135  N134   0.88077       .     S
N134  H135   0.88077       .     S
H136  N134   0.88043       .     S
N134  H136   0.88043       .     S
Cl138 Fe137  2.20238   1_665     S
Fe137 Cl138  2.20238   1_445     S
Cl139 Fe137  2.20238       .     S
Fe137 Cl139  2.20238       .     S
Cl140 Fe137  2.20238   1_655     S
Fe137 Cl140  2.20238   1_455     S
Cl141 Fe137  2.20238   1_565     S
Fe137 Cl141  2.20238   1_545     S
Cl143 Fe142  2.22131   1_665     S
Fe142 Cl143  2.22131   1_445     S
Cl144 Fe142  2.18832   1_655     S
Fe142 Cl144  2.18832   1_455     S
Cl145 Fe142  2.22131       .     S
Fe142 Cl145  2.22131       .     S
Cl146 Fe142  2.18832   1_565     S
Fe142 Cl146  2.18832   1_545     S
H148  N147   0.87849       .     S
N147  H148   0.87849       .     S
H149  N147   0.88099       .     S
N147  H149   0.88099       .     S
C156  N147   1.26738       .     S
N147  C156   1.26738       .     S
H151  N150   0.87895       .     S
N150  H151   0.87895       .     S
H152  N150   0.88187       .     S
N150  H152   0.88187       .     S
C156  N150   1.20227       .     S
N150  C156   1.20227       .     S
H154  N153   0.88191       .     S
N153  H154   0.88191       .     S
H155  N153   0.88122       .     S
N153  H155   0.88122       .     S
C156  N153   1.31692       .     S
N153  C156   1.31692       .     S
H158  O157   0.98089   1_565     S
O157  H158   0.98089   1_545     S
H159  O157   0.98089       .     S
O157  H159   0.98089       .     S
