data_I
_chemical_name_common  '/data/user2/wty/HOF/MOFDiff/mofdiff/data/test/5-9'
_cell_length_a 27.14700
_cell_length_b 27.14700
_cell_length_c 26.80200
_cell_angle_alpha 90.00000
_cell_angle_beta  90.00000
_cell_angle_gamma 90.00000
_space_group_name_H-M_alt      'P 1'


loop_
_space_group_symop_operation_xyz
  'x, y, z' 

loop_
_atom_site_label
_atom_site_fract_x
_atom_site_fract_y
_atom_site_fract_z
_atom_site_type_symbol
N0      0.2769   0.2769   0.2716     N
O1      0.3149    0.258    0.253     O
O2      0.2585   0.2585   0.3114     O
O3       0.258   0.3149    0.253     O
N4      0.3789   0.3789   0.1289     N
H5      0.4062   0.3665   0.1164     H
N6      0.3158   0.3748    0.182     N
H7      0.3028    0.402   0.1699     H
H8       0.301   0.3591   0.2065     H
C9      0.3575   0.3575   0.1633     C
H10     0.3665   0.4062   0.1164     H
N11     0.3748   0.3158    0.182     N
H12      0.402   0.3028   0.1699     H
H13     0.3591    0.301   0.2065     H
Fe14       0.5      0.0      0.5    Fe
Cl15     0.451    0.033   0.4503    Cl
Cl16     0.549    0.967   0.4503    Cl
Cl17     0.549    0.033   0.5497    Cl
Cl18     0.451    0.967   0.5497    Cl
N19     0.3858   0.0238   0.6585     N
H20     0.3836   0.0291   0.6923     H
H21     0.4176   0.0141   0.6516     H
C22     0.3509   0.9824   0.6443     C
H23     0.3567    0.954    0.666     H
H24     0.3567   0.9729   0.6095     H
H25     0.3168   0.9936   0.6481     H
C26     0.3755   0.0714   0.6315     C
H27     0.3983   0.0968   0.6432     H
H28     0.3415   0.0817   0.6382     H
H29     0.3798   0.0665   0.5955     H
Fe30    0.2181      0.0      0.0    Fe
Cl31    0.2598   0.9457   0.0573    Cl
Cl32    0.1759   0.0431   0.0473    Cl
Cl33    0.2598   0.0543   0.9427    Cl
Cl34    0.1759   0.9569   0.9527    Cl
N35     0.1378    0.385   0.3783     N
H36     0.1248   0.3732   0.4059     H
H37     0.1269   0.4129   0.3657     H
N38     0.1921   0.3194   0.3721     N
H39     0.1801   0.3064   0.3996     H
H40     0.2161   0.3045    0.356     H
N41     0.1922   0.3791   0.3113     N
H42     0.2153   0.3632   0.2948     H
H43     0.1805    0.407   0.2996     H
C44     0.1746   0.3604   0.3553     C
Fe45       0.0      0.0   0.2232    Fe
Cl46    0.0563   0.9437   0.2632    Cl
Cl47     0.046    0.046   0.1919    Cl
Cl48    0.9437   0.0563   0.2632    Cl
Cl49     0.954    0.954   0.1919    Cl
H50     0.2055   0.1666   0.4693     H
N51      0.174    0.174   0.4709     N
H52     0.1636   0.2025   0.4594     H
H53     0.2025   0.1636   0.4594     H
H54     0.1666   0.2055   0.4693     H
N55     0.0991   0.1566   0.4911     N
H56       0.09   0.1854   0.4792     H
H57      0.077   0.1366   0.5039     H
C58      0.144    0.144   0.4897     C
N59     0.1566   0.0991   0.4911     N
H60     0.1854     0.09   0.4792     H
H61     0.1366    0.077   0.5039     H
loop_
_geom_bond_atom_site_label_1
_geom_bond_atom_site_label_2
_geom_bond_distance
_geom_bond_site_symmetry_2
_ccdc_geom_bond_type
H8    O3     2.08702       .     S
O3    H8     2.08702       .     S
H13   O1     2.08702       .     S
O1    H13    2.08702       .     S
H40   O2     2.07682       .     S
O2    H40    2.07682       .     S
H42   O3     2.07799       .     S
O3    H42    2.07799       .     S
N0    O1     1.25536       .     S
O1    N0     1.25536       .     S
N0    O2     1.27941       .     S
O2    N0     1.27941       .     S
N0    O3     1.25536       .     S
O3    N0     1.25536       .     S
N4    H5     0.88023       .     S
H5    N4     0.88023       .     S
N4    C9     1.23493       .     S
C9    N4     1.23493       .     S
N4    H10    0.88023       .     S
H10   N4     0.88023       .     S
N6    H7     0.88031       .     S
H7    N6     0.88031       .     S
N6    H8     0.87992       .     S
H8    N6     0.87992       .     S
N6    C9     1.32410       .     S
C9    N6     1.32410       .     S
C9    N11    1.32410       .     S
N11   C9     1.32410       .     S
N11   H12    0.88031       .     S
H12   N11    0.88031       .     S
N11   H13    0.87992       .     S
H13   N11    0.87992       .     S
Fe14  Cl15   2.08479       .     S
Cl15  Fe14   2.08479       .     S
Fe14  Cl16   2.08480   1_545     S
Cl16  Fe14   2.08480   1_565     S
Fe14  Cl17   2.08480       .     S
Cl17  Fe14   2.08480       .     S
Fe14  Cl18   2.08480   1_545     S
Cl18  Fe14   2.08480   1_565     S
N19   H20    0.91921       .     S
H20   N19    0.91921       .     S
N19   H21    0.92129       .     S
H21   N19    0.92129       .     S
N19   C22    1.51842   1_545     S
C22   N19    1.51842   1_565     S
N19   C26    1.50719       .     S
C26   N19    1.50719       .     S
C22   H23    0.97850       .     S
H23   C22    0.97850       .     S
C22   H24    0.98043       .     S
H24   C22    0.98043       .     S
C22   H25    0.97967       .     S
H25   C22    0.97967       .     S
C26   H27    0.97821       .     S
H27   C26    0.97821       .     S
C26   H28    0.98100       .     S
H28   C26    0.98100       .     S
C26   H29    0.98097       .     S
H29   C26    0.98097       .     S
Fe30  Cl31   2.41101   1_545     S
Cl31  Fe30   2.41101   1_565     S
Fe30  Cl32   2.07088       .     S
Cl32  Fe30   2.07088       .     S
Fe30  Cl33   2.41101   1_554     S
Cl33  Fe30   2.41101   1_556     S
Fe30  Cl34   2.07088   1_544     S
Cl34  Fe30   2.07088   1_566     S
N35   H36    0.87998       .     S
H36   N35    0.87998       .     S
N35   H37    0.88049       .     S
H37   N35    0.88049       .     S
N35   C44    1.35056       .     S
C44   N35    1.35056       .     S
N38   H39    0.87973       .     S
H39   N38    0.87973       .     S
N38   H40    0.87994       .     S
H40   N38    0.87994       .     S
N38   C44    1.29123       .     S
C44   N38    1.29123       .     S
N41   H42    0.88041       .     S
H42   N41    0.88041       .     S
N41   H43    0.87913       .     S
H43   N41    0.87913       .     S
N41   C44    1.36993       .     S
C44   N41    1.36993       .     S
Fe45  Cl46   2.41272   1_545     S
Cl46  Fe45   2.41272   1_565     S
Fe45  Cl47   1.95514       .     S
Cl47  Fe45   1.95514       .     S
Fe45  Cl48   2.41272   1_455     S
Cl48  Fe45   2.41272   1_655     S
Fe45  Cl49   1.95514   1_445     S
Cl49  Fe45   1.95514   1_665     S
H50   N51    0.87946       .     S
N51   H50    0.87946       .     S
H50   H53    0.28926       .     S
H53   H50    0.28926       .     S
N51   H52    0.87938       .     S
H52   N51    0.87938       .     S
N51   H53    0.87938       .     S
H53   N51    0.87938       .     S
N51   H54    0.87946       .     S
H54   N51    0.87946       .     S
N51   C58    1.25715       .     S
C58   N51    1.25715       .     S
H52   H54    0.28926       .     S
H54   H52    0.28926       .     S
N55   H56    0.87978       .     S
H56   N55    0.87978       .     S
N55   H57    0.87887       .     S
H57   N55    0.87887       .     S
N55   C58    1.26654       .     S
C58   N55    1.26654       .     S
C58   N59    1.26654       .     S
N59   C58    1.26654       .     S
N59   H60    0.87978       .     S
H60   N59    0.87978       .     S
N59   H61    0.87887       .     S
H61   N59    0.87887       .     S
O3    H8     2.08702       .     S
H8    O3     2.08702       .     S
O1    H13    2.08702       .     S
H13   O1     2.08702       .     S
O2    H40    2.07682       .     S
H40   O2     2.07682       .     S
O3    H42    2.07799       .     S
H42   O3     2.07799       .     S
O1    N0     1.25536       .     S
N0    O1     1.25536       .     S
O2    N0     1.27941       .     S
N0    O2     1.27941       .     S
O3    N0     1.25536       .     S
N0    O3     1.25536       .     S
H5    N4     0.88023       .     S
N4    H5     0.88023       .     S
C9    N4     1.23493       .     S
N4    C9     1.23493       .     S
H10   N4     0.88023       .     S
N4    H10    0.88023       .     S
H7    N6     0.88031       .     S
N6    H7     0.88031       .     S
H8    N6     0.87992       .     S
N6    H8     0.87992       .     S
C9    N6     1.32410       .     S
N6    C9     1.32410       .     S
N11   C9     1.32410       .     S
C9    N11    1.32410       .     S
H12   N11    0.88031       .     S
N11   H12    0.88031       .     S
H13   N11    0.87992       .     S
N11   H13    0.87992       .     S
Cl15  Fe14   2.08479       .     S
Fe14  Cl15   2.08479       .     S
Cl16  Fe14   2.08480   1_565     S
Fe14  Cl16   2.08480   1_545     S
Cl17  Fe14   2.08480       .     S
Fe14  Cl17   2.08480       .     S
Cl18  Fe14   2.08480   1_565     S
Fe14  Cl18   2.08480   1_545     S
H20   N19    0.91921       .     S
N19   H20    0.91921       .     S
H21   N19    0.92129       .     S
N19   H21    0.92129       .     S
C22   N19    1.51842   1_565     S
N19   C22    1.51842   1_545     S
C26   N19    1.50719       .     S
N19   C26    1.50719       .     S
H23   C22    0.97850       .     S
C22   H23    0.97850       .     S
H24   C22    0.98043       .     S
C22   H24    0.98043       .     S
H25   C22    0.97967       .     S
C22   H25    0.97967       .     S
H27   C26    0.97821       .     S
C26   H27    0.97821       .     S
H28   C26    0.98100       .     S
C26   H28    0.98100       .     S
H29   C26    0.98097       .     S
C26   H29    0.98097       .     S
Cl31  Fe30   2.41101   1_565     S
Fe30  Cl31   2.41101   1_545     S
Cl32  Fe30   2.07088       .     S
Fe30  Cl32   2.07088       .     S
Cl33  Fe30   2.41101   1_556     S
Fe30  Cl33   2.41101   1_554     S
Cl34  Fe30   2.07088   1_566     S
Fe30  Cl34   2.07088   1_544     S
H36   N35    0.87998       .     S
N35   H36    0.87998       .     S
H37   N35    0.88049       .     S
N35   H37    0.88049       .     S
C44   N35    1.35056       .     S
N35   C44    1.35056       .     S
H39   N38    0.87973       .     S
N38   H39    0.87973       .     S
H40   N38    0.87994       .     S
N38   H40    0.87994       .     S
C44   N38    1.29123       .     S
N38   C44    1.29123       .     S
H42   N41    0.88041       .     S
N41   H42    0.88041       .     S
H43   N41    0.87913       .     S
N41   H43    0.87913       .     S
C44   N41    1.36993       .     S
N41   C44    1.36993       .     S
Cl46  Fe45   2.41272   1_565     S
Fe45  Cl46   2.41272   1_545     S
Cl47  Fe45   1.95514       .     S
Fe45  Cl47   1.95514       .     S
Cl48  Fe45   2.41272   1_655     S
Fe45  Cl48   2.41272   1_455     S
Cl49  Fe45   1.95514   1_665     S
Fe45  Cl49   1.95514   1_445     S
N51   H50    0.87946       .     S
H50   N51    0.87946       .     S
H53   H50    0.28926       .     S
H50   H53    0.28926       .     S
H52   N51    0.87938       .     S
N51   H52    0.87938       .     S
H53   N51    0.87938       .     S
N51   H53    0.87938       .     S
H54   N51    0.87946       .     S
N51   H54    0.87946       .     S
C58   N51    1.25715       .     S
N51   C58    1.25715       .     S
H54   H52    0.28926       .     S
H52   H54    0.28926       .     S
H56   N55    0.87978       .     S
N55   H56    0.87978       .     S
H57   N55    0.87887       .     S
N55   H57    0.87887       .     S
C58   N55    1.26654       .     S
N55   C58    1.26654       .     S
N59   C58    1.26654       .     S
C58   N59    1.26654       .     S
H60   N59    0.87978       .     S
N59   H60    0.87978       .     S
H61   N59    0.87887       .     S
N59   H61    0.87887       .     S
