data_I
_chemical_name_common  '/data/user2/wty/HOF/MOFDiff/mofdiff/data/test/6_880741_1-pys-tpmatmbd-pos2'
_cell_length_a 27.06470
_cell_length_b 27.06470
_cell_length_c 35.40720
_cell_angle_alpha 90.00000
_cell_angle_beta  90.00000
_cell_angle_gamma 90.00000
_space_group_name_H-M_alt      'P 1'


loop_
_space_group_symop_operation_xyz
  'x, y, z' 

loop_
_atom_site_label
_atom_site_fract_x
_atom_site_fract_y
_atom_site_fract_z
_atom_site_type_symbol
S0     0.99672  0.14673  0.41668     S
O1     0.97851  0.19053  0.43627     O
O2     0.04952  0.14294  0.41986     O
O3     0.97807  0.14281  0.37888     O
C4      0.9698   0.0944  0.43986     C
C5      0.9514   0.0567  0.41664     C
C6      0.9331   0.0131  0.43202     C
C7      0.9141   0.9614   0.4873     C
C8      0.9124   0.9542   0.5245     C
C9      0.9315   0.9837   0.5882     C
C10     0.9503   0.0207   0.6122     C
C11     0.9663   0.0652   0.5983     C
C12     0.9874   0.1171   0.5428     C
C13     0.9871    0.125  0.50426     C
C14     0.9307   0.0052  0.46998     C
C15     0.9692   0.0897   0.4791     C
C16     0.9299   0.9905   0.5486     C
C17     0.9667   0.0726  0.55824     C
C18     0.9492   0.0442  0.49454     C
C19     0.9487   0.0362   0.5341     C
H20     0.9515   0.0609   0.3906     H
H21     0.9221   0.9884   0.4158     H
H22     0.9037   0.9357   0.4718     H
H23     0.8995    0.925   0.5343     H
H24     0.9199   0.9543   0.5985     H
H25     0.9519   0.0147   0.6381     H
H26     0.9766   0.0901   0.6146     H
H27     0.0011   0.1406   0.5587     H
H28     0.9992   0.1547   0.4949     H
N29    0.98736  0.15182  0.30208     N
C30    0.99069  0.10522  0.27881     C
C31    0.04468  0.08532  0.28168     C
C32    0.06924  0.08537   0.3164     C
C33     0.1163   0.0644   0.3187     C
C34    0.13841  0.04514  0.28772     C
C35    0.11484   0.0456  0.25325     C
C36    0.06804  0.06585  0.24998     C
C37    0.97776   0.1185  0.23843     C
C38     0.9958   0.1611  0.22177     C
C39     0.9859   0.1717  0.18329     C
C40     0.9585   0.1392   0.1622     C
C41     0.9402   0.0967  0.17807     C
C42    0.94936   0.0859  0.21608     C
C43    0.95496   0.0681  0.29554     C
C44     0.9683   0.0196  0.30277     C
C45     0.9337   0.9867  0.31822     C
C46     0.8867   0.0003   0.3257     C
C47     0.8721   0.0475   0.3173     C
C48     0.9065   0.0819  0.30283     C
H49     0.9841   0.1439   0.3264     H
H50     0.9613   0.1694   0.2947     H
H51     0.0147   0.1696   0.2989     H
H52     0.0545   0.0992   0.3377     H
H53     0.1327   0.0636   0.3418     H
H54     0.1698   0.0315   0.2897     H
H55     0.1304   0.0323   0.2321     H
H56     0.0523   0.0664   0.2266     H
H57     0.0146   0.1831    0.236     H
H58     0.9979   0.2006   0.1724     H
H59     0.9523    0.146   0.1369     H
H60     0.9217   0.0749   0.1635     H
H61     0.9367   0.0571   0.2267     H
H62      1e-04   0.0089   0.2974     H
H63     0.9434   0.9545   0.3235     H
H64     0.8646    0.978   0.3364     H
H65     0.8394   0.0569    0.321     H
H66     0.8965   0.1143   0.2982     H
N67    0.09175  0.23936  0.41729     N
C68    0.13991  0.24571  0.43927     C
C69    0.15075  0.30098  0.44243     C
C70     0.1444   0.3322  0.41116     C
C71     0.1545   0.3824  0.41396     C
C72     0.1714   0.4016   0.4473     C
C73     0.1785   0.3711   0.4779     C
C74     0.1678   0.3212  0.47595     C
C75       0.18   0.2179  0.41812     C
C76     0.2276   0.2381  0.41355     C
C77      0.265    0.211  0.39619     C
C78     0.2552   0.1636  0.38238     C
C79     0.2096    0.145   0.3858     C
C80     0.1716   0.1705   0.4037     C
C81     0.1307   0.2236  0.47757     C
C82     0.1665    0.195  0.49646     C
C83     0.1608   0.1771   0.5313     C
C84     0.1172   0.1877   0.5513     C
C85     0.0797   0.2161   0.5344     C
C86     0.0874   0.2331  0.49779     C
H87     0.0972   0.2453   0.3929     H
H88     0.0693   0.2605    0.426     H
H89     0.0807   0.2086   0.4201     H
H90     0.1333   0.3192   0.3884     H
H91     0.1498   0.4029   0.3932     H
H92     0.1781   0.4352   0.4493     H
H93     0.1908   0.3843   0.5003     H
H94     0.1719   0.3013   0.4971     H
H95     0.2341   0.2699   0.4222     H
H96     0.2964   0.2245   0.3938     H
H97     0.2801   0.1452    0.371     H
H98      0.203   0.1139   0.3758     H
H99     0.1406   0.1561   0.4061     H
H100    0.1959   0.1882   0.4839     H
H101    0.1854   0.1578   0.5423     H
H102    0.1132   0.1759   0.5758     H
H103    0.0506   0.2233   0.5473     H
H104    0.0627   0.2516   0.4863     H
S105   0.09966  0.24724  0.30207     S
O106   0.09409  0.29274  0.28111     O
O107    0.0681  0.20906  0.28753     O
O108   0.09326  0.25484  0.34208     O
C109   0.16028  0.22553  0.29497     C
C110   0.16681   0.1773  0.28289     C
C111   0.21299   0.1569  0.27819     C
C112    0.3046   0.1637  0.28174     C
C113    0.3445   0.1911  0.28867     C
C114     0.383   0.2721  0.30379     C
C115    0.3787   0.3207  0.31375     C
C116    0.3316   0.3413   0.3204     C
C117   0.24026   0.3329  0.32177     C
C118       0.2   0.3061  0.31558     C
C119   0.20192   0.2555  0.30315     C
C120    0.2553   0.1843  0.28556     C
C121    0.2887   0.3133  0.31593     C
C122   0.34127   0.2423  0.29971     C
C123   0.24988  0.23453  0.29818     C
C124   0.29344   0.2634  0.30453     C
H125    0.1391   0.1581   0.2778     H
H126    0.2159   0.1244     0.27     H
H127    0.3084   0.1309   0.2744     H
H128    0.3755   0.1767   0.2863     H
H129    0.4142   0.2586   0.2997     H
H130    0.4068   0.3402   0.3161     H
H131    0.3291   0.3742   0.3279     H
H132    0.2369   0.3653   0.3301     H
H133    0.1693   0.3206   0.3194     H
C134    0.2294   0.0073   0.4288     C
C135    0.2673   0.0277   0.4083     C
C136    0.2744   0.0188   0.3705     C
C137    0.2396   0.9874   0.3519     C
C138    0.2009   0.9667   0.3718     C
C139    0.1951   0.9774   0.4103     C
C140    0.2232   0.0175   0.4709     C
C141    0.3171   0.0405   0.3487     C
C142    0.1663   0.9326   0.3517     C
H143    0.2894   0.0485   0.4206     H
H144    0.2431   0.9808   0.3262     H
H145    0.1684   0.9645   0.4235     H
H146    0.2121   0.0509   0.4744     H
H147    0.2543    0.013   0.4834     H
H148    0.1993   0.9951   0.4812     H
H149    0.3455   0.0196   0.3513     H
H150    0.3246   0.0728   0.3584     H
H151    0.3084    0.043   0.3225     H
H152    0.1704   0.8997   0.3612     H
H153    0.1734    0.933   0.3251     H
H154    0.1329   0.9432   0.3558     H
loop_
_geom_bond_atom_site_label_1
_geom_bond_atom_site_label_2
_geom_bond_distance
_geom_bond_site_symmetry_2
_ccdc_geom_bond_type
H49   O3     1.86555       .     S
O3    H49    1.86555       .     S
H51   O107   1.84158       .     S
O107  H51    1.84158       .     S
H87   O108   1.82095       .     S
O108  H87    1.82095       .     S
H89   O2     1.96728       .     S
O2    H89    1.96728       .     S
S0    O1     1.45920       .     S
O1    S0     1.45920       .     S
S0    O2     1.43711   1_655     S
O2    S0     1.43711   1_455     S
S0    O3     1.43434       .     S
O3    S0     1.43434       .     S
S0    C4     1.79174       .     S
C4    S0     1.79174       .     S
C4    C5     1.40179       .     S
C5    C4     1.40179       .     S
C4    C15    1.39528       .     S
C15   C4     1.39528       .     S
C5    C6     1.39079       .     S
C6    C5     1.39079       .     S
C5    H20    0.92899       .     S
H20   C5     0.92899       .     S
C6    C14    1.36251       .     S
C14   C6     1.36251       .     S
C6    H21    0.93024   1_545     S
H21   C6     0.93024   1_565     S
C7    C8     1.33228       .     S
C8    C7     1.33228       .     S
C7    C14    1.40826   1_565     S
C14   C7     1.40826   1_545     S
C7    H22    0.92964       .     S
H22   C7     0.92964       .     S
C8    C16    1.38480       .     S
C16   C8     1.38480       .     S
C8    H23    0.93105       .     S
H23   C8     0.93105       .     S
C9    C10    1.40847   1_565     S
C10   C9     1.40847   1_545     S
C9    C16    1.41481       .     S
C16   C9     1.41481       .     S
C9    H24    0.92990       .     S
H24   C9     0.92990       .     S
C10   C11    1.37123       .     S
C11   C10    1.37123       .     S
C10   H25    0.93232       .     S
H25   C10    0.93232       .     S
C11   C17    1.43252       .     S
C17   C11    1.43252       .     S
C11   H26    0.93003       .     S
H26   C11    0.93003       .     S
C12   C13    1.38127       .     S
C13   C12    1.38127       .     S
C12   C17    1.43641       .     S
C17   C12    1.43641       .     S
C12   H27    0.92679   1_655     S
H27   C12    0.92679   1_455     S
C13   C15    1.39322       .     S
C15   C13    1.39322       .     S
C13   H28    0.92909       .     S
H28   C13    0.92909       .     S
C14   C18    1.45638       .     S
C18   C14    1.45638       .     S
C15   C18    1.45201       .     S
C18   C15    1.45201       .     S
C16   C19    1.43259   1_565     S
C19   C16    1.43259   1_545     S
C17   C19    1.39227       .     S
C19   C17    1.39227       .     S
C18   C19    1.41741       .     S
C19   C18    1.41741       .     S
N29   C30    1.50919       .     S
C30   N29    1.50919       .     S
N29   H49    0.89176       .     S
H49   N29    0.89176       .     S
N29   H50    0.89001       .     S
H50   N29    0.89001       .     S
N29   H51    0.88981   1_655     S
H51   N29    0.88981   1_455     S
C30   C31    1.56063   1_655     S
C31   C30    1.56063   1_455     S
C30   C37    1.51519       .     S
C37   C30    1.51519       .     S
C30   C43    1.51503       .     S
C43   C30    1.51503       .     S
C31   C32    1.39754       .     S
C32   C31    1.39754       .     S
C31   C36    1.39183       .     S
C36   C31    1.39183       .     S
C32   C33    1.39677       .     S
C33   C32    1.39677       .     S
C32   H52    0.93168       .     S
H52   C32    0.93168       .     S
C33   C34    1.35389       .     S
C34   C33    1.35389       .     S
C33   H53    0.93083       .     S
H53   C33    0.93083       .     S
C34   C35    1.37720       .     S
C35   C34    1.37720       .     S
C34   H54    0.92895       .     S
H54   C34    0.92895       .     S
C35   C36    1.38496       .     S
C36   C35    1.38496       .     S
C35   H55    0.93151       .     S
H55   C35    0.93151       .     S
C36   H56    0.93112       .     S
H56   C36    0.93112       .     S
C37   C38    1.38407       .     S
C38   C37    1.38407       .     S
C37   C42    1.41262       .     S
C42   C37    1.41262       .     S
C38   C39    1.41789       .     S
C39   C38    1.41789       .     S
C38   H57    0.93128   1_655     S
H57   C38    0.93128   1_455     S
C39   C40    1.37159       .     S
C40   C39    1.37159       .     S
C39   H58    0.93056       .     S
H58   C39    0.93056       .     S
C40   C41    1.37264       .     S
C41   C40    1.37264       .     S
C40   H59    0.92978       .     S
H59   C40    0.92978       .     S
C41   C42    1.39934       .     S
C42   C41    1.39934       .     S
C41   H60    0.93002       .     S
H60   C41    0.93002       .     S
C42   H61    0.93078       .     S
H61   C42    0.93078       .     S
C43   C44    1.38524       .     S
C44   C43    1.38524       .     S
C43   C48    1.38791       .     S
C48   C43    1.38791       .     S
C44   C45    1.40322   1_545     S
C45   C44    1.40322   1_565     S
C44   H62    0.92777   1_655     S
H62   C44    0.92777   1_455     S
C45   C46    1.35045   1_565     S
C46   C45    1.35045   1_545     S
C45   H63    0.92917       .     S
H63   C45    0.92917       .     S
C46   C47    1.36985       .     S
C47   C46    1.36985       .     S
C46   H64    0.93035   1_545     S
H64   C46    0.93035   1_565     S
C47   C48    1.41284       .     S
C48   C47    1.41284       .     S
C47   H65    0.93013       .     S
H65   C47    0.93013       .     S
C48   H66    0.93224       .     S
H66   C48    0.93224       .     S
N67   C68    1.52779       .     S
C68   N67    1.52779       .     S
N67   H87    0.89072       .     S
H87   N67    0.89072       .     S
N67   H88    0.88974       .     S
H88   N67    0.88974       .     S
N67   H89    0.89018       .     S
H89   N67    0.89018       .     S
C68   C69    1.52847       .     S
C69   C68    1.52847       .     S
C68   C75    1.51809       .     S
C75   C68    1.51809       .     S
C68   C81    1.50307       .     S
C81   C68    1.50307       .     S
C69   C70    1.40333       .     S
C70   C69    1.40333       .     S
C69   C74    1.38601       .     S
C74   C69    1.38601       .     S
C70   C71    1.38942       .     S
C71   C70    1.38942       .     S
C70   H90    0.92923       .     S
H90   C70    0.92923       .     S
C71   C72    1.36849       .     S
C72   C71    1.36849       .     S
C71   H91    0.92969       .     S
H91   C71    0.92969       .     S
C72   C73    1.37558       .     S
C73   C72    1.37558       .     S
C72   H92    0.92998       .     S
H92   C72    0.92998       .     S
C73   C74    1.38295       .     S
C74   C73    1.38295       .     S
C73   H93    0.93139       .     S
H93   C73    0.93139       .     S
C74   H94    0.92908       .     S
H94   C74    0.92908       .     S
C75   C76    1.40881       .     S
C76   C75    1.40881       .     S
C75   C80    1.39933       .     S
C80   C75    1.39933       .     S
C76   C77    1.39297       .     S
C77   C76    1.39297       .     S
C76   H95    0.93031       .     S
H95   C76    0.93031       .     S
C77   C78    1.39828       .     S
C78   C77    1.39828       .     S
C77   H96    0.92891       .     S
H96   C77    0.92891       .     S
C78   C79    1.33836       .     S
C79   C78    1.33836       .     S
C78   H97    0.92979       .     S
H97   C78    0.92979       .     S
C79   C80    1.39130       .     S
C80   C79    1.39130       .     S
C79   H98    0.93046       .     S
H98   C79    0.93046       .     S
C80   H99    0.92900       .     S
H99   C80    0.92900       .     S
C81   C82    1.40901       .     S
C82   C81    1.40901       .     S
C81   C86    1.39715       .     S
C86   C81    1.39715       .     S
C82   C83    1.33425       .     S
C83   C82    1.33425       .     S
C82   H100   0.92994       .     S
H100  C82    0.92994       .     S
C83   C84    1.40578       .     S
C84   C83    1.40578       .     S
C83   H101   0.93157       .     S
H101  C83    0.93157       .     S
C84   C85    1.40675       .     S
C85   C84    1.40675       .     S
C84   H102   0.93071       .     S
H102  C84    0.93071       .     S
C85   C86    1.39119       .     S
C86   C85    1.39119       .     S
C85   H103   0.93107       .     S
H103  C85    0.93107       .     S
C86   H104   0.92903       .     S
H104  C86    0.92903       .     S
S105  O106   1.44566       .     S
O106  S105   1.44566       .     S
S105  O107   1.43611       .     S
O107  S105   1.43611       .     S
S105  O108   1.44194       .     S
O108  S105   1.44194       .     S
S105  C109   1.76074       .     S
C109  S105   1.76074       .     S
C109  C110   1.38494       .     S
C110  C109   1.38494       .     S
C109  C119   1.41841       .     S
C119  C109   1.41841       .     S
C110  C111   1.37646       .     S
C111  C110   1.37646       .     S
C110  H125   0.93003       .     S
H125  C110   0.93003       .     S
C111  C120   1.38899       .     S
C120  C111   1.38899       .     S
C111  H126   0.92951       .     S
H126  C111   0.92951       .     S
C112  C113   1.33277       .     S
C113  C112   1.33277       .     S
C112  C120   1.45240       .     S
C120  C112   1.45240       .     S
C112  H127   0.93068       .     S
H127  C112   0.93068       .     S
C113  C122   1.44244       .     S
C122  C113   1.44244       .     S
C113  H128   0.92890       .     S
H128  C113   0.92890       .     S
C114  C115   1.36676       .     S
C115  C114   1.36676       .     S
C114  C122   1.39532       .     S
C122  C114   1.39532       .     S
C114  H129   0.93140       .     S
H129  C114   0.93140       .     S
C115  C116   1.41112       .     S
C116  C115   1.41112       .     S
C115  H130   0.92943       .     S
H130  C115   0.92943       .     S
C116  C121   1.39550       .     S
C121  C116   1.39550       .     S
C116  H131   0.93164       .     S
H131  C116   0.93164       .     S
C117  C118   1.32719       .     S
C118  C117   1.32719       .     S
C117  C121   1.42930       .     S
C121  C117   1.42930       .     S
C117  H132   0.92963       .     S
H132  C117   0.92963       .     S
C118  C119   1.43940       .     S
C119  C118   1.43940       .     S
C118  H133   0.92880       .     S
H133  C118   0.92880       .     S
C119  C123   1.42756       .     S
C123  C119   1.42756       .     S
C120  C123   1.43851       .     S
C123  C120   1.43851       .     S
C121  C124   1.41539       .     S
C124  C121   1.41539       .     S
C122  C124   1.42512       .     S
C124  C122   1.42512       .     S
C123  C124   1.43212       .     S
C124  C123   1.43212       .     S
C134  C135   1.37254       .     S
C135  C134   1.37254       .     S
C134  C139   1.39489   1_545     S
C139  C134   1.39489   1_565     S
C134  C140   1.52525       .     S
C140  C134   1.52525       .     S
C135  C136   1.37340       .     S
C136  C135   1.37340       .     S
C135  H143   0.92970       .     S
H143  C135   0.92970       .     S
C136  C137   1.42934   1_545     S
C137  C136   1.42934   1_565     S
C136  C141   1.50873       .     S
C141  C136   1.50873       .     S
C137  C138   1.38108       .     S
C138  C137   1.38108       .     S
C137  H144   0.93216       .     S
H144  C137   0.93216       .     S
C138  C139   1.40241       .     S
C139  C138   1.40241       .     S
C138  C142   1.49505       .     S
C142  C138   1.49505       .     S
C139  H145   0.92872       .     S
H145  C139   0.92872       .     S
C140  H146   0.96060       .     S
H146  C140   0.96060       .     S
C140  H147   0.95875       .     S
H147  C140   0.95875       .     S
C140  H148   0.95862   1_545     S
H148  C140   0.95862   1_565     S
C141  H149   0.95877       .     S
H149  C141   0.95877       .     S
C141  H150   0.96092       .     S
H150  C141   0.96092       .     S
C141  H151   0.95947       .     S
H151  C141   0.95947       .     S
C142  H152   0.95829       .     S
H152  C142   0.95829       .     S
C142  H153   0.96130       .     S
H153  C142   0.96130       .     S
C142  H154   0.95944       .     S
H154  C142   0.95944       .     S
O3    H49    1.86555       .     S
H49   O3     1.86555       .     S
O107  H51    1.84158       .     S
H51   O107   1.84158       .     S
O108  H87    1.82095       .     S
H87   O108   1.82095       .     S
O2    H89    1.96728       .     S
H89   O2     1.96728       .     S
O1    S0     1.45920       .     S
S0    O1     1.45920       .     S
O2    S0     1.43711   1_455     S
S0    O2     1.43711   1_655     S
O3    S0     1.43434       .     S
S0    O3     1.43434       .     S
C4    S0     1.79174       .     S
S0    C4     1.79174       .     S
C5    C4     1.40179       .     S
C4    C5     1.40179       .     S
C15   C4     1.39528       .     S
C4    C15    1.39528       .     S
C6    C5     1.39079       .     S
C5    C6     1.39079       .     S
H20   C5     0.92899       .     S
C5    H20    0.92899       .     S
C14   C6     1.36251       .     S
C6    C14    1.36251       .     S
H21   C6     0.93024   1_565     S
C6    H21    0.93024   1_545     S
C8    C7     1.33228       .     S
C7    C8     1.33228       .     S
C14   C7     1.40826   1_545     S
C7    C14    1.40826   1_565     S
H22   C7     0.92964       .     S
C7    H22    0.92964       .     S
C16   C8     1.38480       .     S
C8    C16    1.38480       .     S
H23   C8     0.93105       .     S
C8    H23    0.93105       .     S
C10   C9     1.40847   1_545     S
C9    C10    1.40847   1_565     S
C16   C9     1.41481       .     S
C9    C16    1.41481       .     S
H24   C9     0.92990       .     S
C9    H24    0.92990       .     S
C11   C10    1.37123       .     S
C10   C11    1.37123       .     S
H25   C10    0.93232       .     S
C10   H25    0.93232       .     S
C17   C11    1.43252       .     S
C11   C17    1.43252       .     S
H26   C11    0.93003       .     S
C11   H26    0.93003       .     S
C13   C12    1.38127       .     S
C12   C13    1.38127       .     S
C17   C12    1.43641       .     S
C12   C17    1.43641       .     S
H27   C12    0.92679   1_455     S
C12   H27    0.92679   1_655     S
C15   C13    1.39322       .     S
C13   C15    1.39322       .     S
H28   C13    0.92909       .     S
C13   H28    0.92909       .     S
C18   C14    1.45638       .     S
C14   C18    1.45638       .     S
C18   C15    1.45201       .     S
C15   C18    1.45201       .     S
C19   C16    1.43259   1_545     S
C16   C19    1.43259   1_565     S
C19   C17    1.39227       .     S
C17   C19    1.39227       .     S
C19   C18    1.41741       .     S
C18   C19    1.41741       .     S
C30   N29    1.50919       .     S
N29   C30    1.50919       .     S
H49   N29    0.89176       .     S
N29   H49    0.89176       .     S
H50   N29    0.89001       .     S
N29   H50    0.89001       .     S
H51   N29    0.88981   1_455     S
N29   H51    0.88981   1_655     S
C31   C30    1.56063   1_455     S
C30   C31    1.56063   1_655     S
C37   C30    1.51519       .     S
C30   C37    1.51519       .     S
C43   C30    1.51503       .     S
C30   C43    1.51503       .     S
C32   C31    1.39754       .     S
C31   C32    1.39754       .     S
C36   C31    1.39183       .     S
C31   C36    1.39183       .     S
C33   C32    1.39677       .     S
C32   C33    1.39677       .     S
H52   C32    0.93168       .     S
C32   H52    0.93168       .     S
C34   C33    1.35389       .     S
C33   C34    1.35389       .     S
H53   C33    0.93083       .     S
C33   H53    0.93083       .     S
C35   C34    1.37720       .     S
C34   C35    1.37720       .     S
H54   C34    0.92895       .     S
C34   H54    0.92895       .     S
C36   C35    1.38496       .     S
C35   C36    1.38496       .     S
H55   C35    0.93151       .     S
C35   H55    0.93151       .     S
H56   C36    0.93112       .     S
C36   H56    0.93112       .     S
C38   C37    1.38407       .     S
C37   C38    1.38407       .     S
C42   C37    1.41262       .     S
C37   C42    1.41262       .     S
C39   C38    1.41789       .     S
C38   C39    1.41789       .     S
H57   C38    0.93128   1_455     S
C38   H57    0.93128   1_655     S
C40   C39    1.37159       .     S
C39   C40    1.37159       .     S
H58   C39    0.93056       .     S
C39   H58    0.93056       .     S
C41   C40    1.37264       .     S
C40   C41    1.37264       .     S
H59   C40    0.92978       .     S
C40   H59    0.92978       .     S
C42   C41    1.39934       .     S
C41   C42    1.39934       .     S
H60   C41    0.93002       .     S
C41   H60    0.93002       .     S
H61   C42    0.93078       .     S
C42   H61    0.93078       .     S
C44   C43    1.38524       .     S
C43   C44    1.38524       .     S
C48   C43    1.38791       .     S
C43   C48    1.38791       .     S
C45   C44    1.40322   1_565     S
C44   C45    1.40322   1_545     S
H62   C44    0.92777   1_455     S
C44   H62    0.92777   1_655     S
C46   C45    1.35045   1_545     S
C45   C46    1.35045   1_565     S
H63   C45    0.92917       .     S
C45   H63    0.92917       .     S
C47   C46    1.36985       .     S
C46   C47    1.36985       .     S
H64   C46    0.93035   1_565     S
C46   H64    0.93035   1_545     S
C48   C47    1.41284       .     S
C47   C48    1.41284       .     S
H65   C47    0.93013       .     S
C47   H65    0.93013       .     S
H66   C48    0.93224       .     S
C48   H66    0.93224       .     S
C68   N67    1.52779       .     S
N67   C68    1.52779       .     S
H87   N67    0.89072       .     S
N67   H87    0.89072       .     S
H88   N67    0.88974       .     S
N67   H88    0.88974       .     S
H89   N67    0.89018       .     S
N67   H89    0.89018       .     S
C69   C68    1.52847       .     S
C68   C69    1.52847       .     S
C75   C68    1.51809       .     S
C68   C75    1.51809       .     S
C81   C68    1.50307       .     S
C68   C81    1.50307       .     S
C70   C69    1.40333       .     S
C69   C70    1.40333       .     S
C74   C69    1.38601       .     S
C69   C74    1.38601       .     S
C71   C70    1.38942       .     S
C70   C71    1.38942       .     S
H90   C70    0.92923       .     S
C70   H90    0.92923       .     S
C72   C71    1.36849       .     S
C71   C72    1.36849       .     S
H91   C71    0.92969       .     S
C71   H91    0.92969       .     S
C73   C72    1.37558       .     S
C72   C73    1.37558       .     S
H92   C72    0.92998       .     S
C72   H92    0.92998       .     S
C74   C73    1.38295       .     S
C73   C74    1.38295       .     S
H93   C73    0.93139       .     S
C73   H93    0.93139       .     S
H94   C74    0.92908       .     S
C74   H94    0.92908       .     S
C76   C75    1.40881       .     S
C75   C76    1.40881       .     S
C80   C75    1.39933       .     S
C75   C80    1.39933       .     S
C77   C76    1.39297       .     S
C76   C77    1.39297       .     S
H95   C76    0.93031       .     S
C76   H95    0.93031       .     S
C78   C77    1.39828       .     S
C77   C78    1.39828       .     S
H96   C77    0.92891       .     S
C77   H96    0.92891       .     S
C79   C78    1.33836       .     S
C78   C79    1.33836       .     S
H97   C78    0.92979       .     S
C78   H97    0.92979       .     S
C80   C79    1.39130       .     S
C79   C80    1.39130       .     S
H98   C79    0.93046       .     S
C79   H98    0.93046       .     S
H99   C80    0.92900       .     S
C80   H99    0.92900       .     S
C82   C81    1.40901       .     S
C81   C82    1.40901       .     S
C86   C81    1.39715       .     S
C81   C86    1.39715       .     S
C83   C82    1.33425       .     S
C82   C83    1.33425       .     S
H100  C82    0.92994       .     S
C82   H100   0.92994       .     S
C84   C83    1.40578       .     S
C83   C84    1.40578       .     S
H101  C83    0.93157       .     S
C83   H101   0.93157       .     S
C85   C84    1.40675       .     S
C84   C85    1.40675       .     S
H102  C84    0.93071       .     S
C84   H102   0.93071       .     S
C86   C85    1.39119       .     S
C85   C86    1.39119       .     S
H103  C85    0.93107       .     S
C85   H103   0.93107       .     S
H104  C86    0.92903       .     S
C86   H104   0.92903       .     S
O106  S105   1.44566       .     S
S105  O106   1.44566       .     S
O107  S105   1.43611       .     S
S105  O107   1.43611       .     S
O108  S105   1.44194       .     S
S105  O108   1.44194       .     S
C109  S105   1.76074       .     S
S105  C109   1.76074       .     S
C110  C109   1.38494       .     S
C109  C110   1.38494       .     S
C119  C109   1.41841       .     S
C109  C119   1.41841       .     S
C111  C110   1.37646       .     S
C110  C111   1.37646       .     S
H125  C110   0.93003       .     S
C110  H125   0.93003       .     S
C120  C111   1.38899       .     S
C111  C120   1.38899       .     S
H126  C111   0.92951       .     S
C111  H126   0.92951       .     S
C113  C112   1.33277       .     S
C112  C113   1.33277       .     S
C120  C112   1.45240       .     S
C112  C120   1.45240       .     S
H127  C112   0.93068       .     S
C112  H127   0.93068       .     S
C122  C113   1.44244       .     S
C113  C122   1.44244       .     S
H128  C113   0.92890       .     S
C113  H128   0.92890       .     S
C115  C114   1.36676       .     S
C114  C115   1.36676       .     S
C122  C114   1.39532       .     S
C114  C122   1.39532       .     S
H129  C114   0.93140       .     S
C114  H129   0.93140       .     S
C116  C115   1.41112       .     S
C115  C116   1.41112       .     S
H130  C115   0.92943       .     S
C115  H130   0.92943       .     S
C121  C116   1.39550       .     S
C116  C121   1.39550       .     S
H131  C116   0.93164       .     S
C116  H131   0.93164       .     S
C118  C117   1.32719       .     S
C117  C118   1.32719       .     S
C121  C117   1.42930       .     S
C117  C121   1.42930       .     S
H132  C117   0.92963       .     S
C117  H132   0.92963       .     S
C119  C118   1.43940       .     S
C118  C119   1.43940       .     S
H133  C118   0.92880       .     S
C118  H133   0.92880       .     S
C123  C119   1.42756       .     S
C119  C123   1.42756       .     S
C123  C120   1.43851       .     S
C120  C123   1.43851       .     S
C124  C121   1.41539       .     S
C121  C124   1.41539       .     S
C124  C122   1.42512       .     S
C122  C124   1.42512       .     S
C124  C123   1.43212       .     S
C123  C124   1.43212       .     S
C135  C134   1.37254       .     S
C134  C135   1.37254       .     S
C139  C134   1.39489   1_565     S
C134  C139   1.39489   1_545     S
C140  C134   1.52525       .     S
C134  C140   1.52525       .     S
C136  C135   1.37340       .     S
C135  C136   1.37340       .     S
H143  C135   0.92970       .     S
C135  H143   0.92970       .     S
C137  C136   1.42934   1_565     S
C136  C137   1.42934   1_545     S
C141  C136   1.50873       .     S
C136  C141   1.50873       .     S
C138  C137   1.38108       .     S
C137  C138   1.38108       .     S
H144  C137   0.93216       .     S
C137  H144   0.93216       .     S
C139  C138   1.40241       .     S
C138  C139   1.40241       .     S
C142  C138   1.49505       .     S
C138  C142   1.49505       .     S
H145  C139   0.92872       .     S
C139  H145   0.92872       .     S
H146  C140   0.96060       .     S
C140  H146   0.96060       .     S
H147  C140   0.95875       .     S
C140  H147   0.95875       .     S
H148  C140   0.95862   1_565     S
C140  H148   0.95862   1_545     S
H149  C141   0.95877       .     S
C141  H149   0.95877       .     S
H150  C141   0.96092       .     S
C141  H150   0.96092       .     S
H151  C141   0.95947       .     S
C141  H151   0.95947       .     S
H152  C142   0.95829       .     S
C142  H152   0.95829       .     S
H153  C142   0.96130       .     S
C142  H153   0.96130       .     S
H154  C142   0.95944       .     S
C142  H154   0.95944       .     S
