data_I
_chemical_name_common  '/data/user2/wty/HOF/MOFDiff/mofdiff/data/test/6_880742_2as-tpmatcbd-pos1a'
_cell_length_a 30.52830
_cell_length_b 30.52830
_cell_length_c 14.09420
_cell_angle_alpha 90.00000
_cell_angle_beta  90.00000
_cell_angle_gamma 90.00000
_space_group_name_H-M_alt      'P 1'


loop_
_space_group_symop_operation_xyz
  'x, y, z' 

loop_
_atom_site_label
_atom_site_fract_x
_atom_site_fract_y
_atom_site_fract_z
_atom_site_type_symbol
Cl0    0.18986  0.97838  0.72237    Cl
C1     0.23502  0.05307   0.6932     C
C2     0.23657  0.00846   0.7063     C
C3     0.27682  0.98671   0.7089     C
C4     0.31377  0.01173   0.6963     C
C5       0.313   0.0557   0.6805     C
C6      0.2736  0.07522   0.6798     C
H7      0.2785   0.9566   0.7188     H
H8      0.3386   0.0715   0.6706     H
H9      0.2724   0.1053   0.6699     H
Cl10   0.36479   0.9727   0.6949    Cl
Cl11   0.36371  0.00047   0.7027    Cl
Cl12   0.19803  0.08763   0.6977    Cl
Cl13   0.17671  0.07451  0.67965    Cl
S14    0.49148  0.15743  0.24132     S
O15    0.48034  0.20284   0.2205     O
O16    0.46162  0.13699  0.30832     O
O17    0.53715  0.15265  0.27118     O
C18     0.5178  0.10039  0.10387     C
C19    0.48627  0.12865  0.13368     C
C20    0.44683  0.13469  0.08123     C
C21    0.44014  0.11135  0.00053     C
C22    0.49041  0.00084  0.76839     C
C23    0.52147  0.97216  0.73815     C
C24    0.56115  0.96731   0.7895     C
C25     0.5688  0.99127  0.86888     C
C26    0.54335  0.04642  0.98584     C
C27    0.46542  0.05619  0.88455     C
C28    0.51175  0.07561  0.01883     C
C29    0.47183    0.081  0.96669     C
C30    0.53703  0.02174  0.90324     C
C31    0.49679  0.02662  0.85177     C
H32     0.5434   0.0972   0.1389     H
H33     0.4258   0.1545   0.1022     H
H34     0.4143   0.1153   0.9667     H
H35     0.4645   0.0037   0.7341     H
H36     0.5167   0.9557   0.6836     H
H37     0.5821   0.9475   0.7685     H
H38     0.5951   0.9878   0.9013     H
H39     0.5693   0.0432   0.0196     H
H40     0.4395   0.0595   0.8507     H
N41    0.47964  0.16742  0.49361     N
C42    0.47804  0.13171  0.56818     C
C43    0.45697  0.15214   0.6569     C
C44    0.47287  0.19182  0.69247     C
C45    0.45327  0.21097  0.77088     C
C46    0.41835  0.19091  0.81621     C
C47    0.40285  0.15146  0.78202     C
C48    0.42192  0.13222  0.70305     C
C49    0.52493  0.11644  0.58687     C
C50    0.55543  0.11485  0.51327     C
C51    0.59742  0.09914  0.53031     C
C52    0.60912  0.08417   0.6196     C
C53    0.57883    0.085   0.6925     C
C54    0.53695  0.10151  0.67642     C
C55    0.44979  0.09434  0.52776     C
C56    0.41071  0.10386  0.48101     C
C57    0.38504  0.07018   0.4456     C
C58    0.39695   0.0271   0.4574     C
C59    0.43514  0.01721   0.5055     C
C60    0.46174  0.05079  0.54006     C
H61     0.4526   0.1768   0.4815     H
H62     0.4915   0.1568   0.4407     H
H63     0.4958   0.1896   0.5148     H
H64     0.4966   0.2054   0.6635     H
H65     0.4637   0.2376   0.7934     H
H66     0.4055   0.2039    0.869     H
H67     0.3795   0.1377   0.8121     H
H68     0.4112   0.1057   0.6806     H
H69     0.5477   0.1243   0.4528     H
H70     0.6178   0.0987   0.4814     H
H71     0.6372   0.0736   0.6304     H
H72     0.5864   0.0745   0.7522     H
H73     0.5169   0.1026   0.7259     H
H74     0.4018   0.1328   0.4736     H
H75     0.3593   0.0768   0.4132     H
H76     0.3794   0.0048   0.4333     H
H77     0.4431   0.9881   0.5148     H
H78     0.4876    0.044   0.5715     H
loop_
_geom_bond_atom_site_label_1
_geom_bond_atom_site_label_2
_geom_bond_distance
_geom_bond_site_symmetry_2
_ccdc_geom_bond_type
H62   O16    2.16310       .     S
O16   H62    2.16310       .     S
Cl0   C2     1.71113   1_565     S
C2    Cl0    1.71113   1_545     S
C1    C2     1.37514       .     S
C2    C1     1.37514       .     S
C1    C6     1.37116       .     S
C6    C1     1.37116       .     S
C1    Cl12   1.54672       .     S
Cl12  C1     1.54672       .     S
C1    Cl13   1.90621       .     S
Cl13  C1     1.90621       .     S
C2    C3     1.39717   1_545     S
C3    C2     1.39717   1_565     S
C3    C4     1.37382   1_565     S
C4    C3     1.37382   1_545     S
C3    H7     0.93115       .     S
H7    C3     0.93115       .     S
C4    C5     1.36088       .     S
C5    C4     1.36088       .     S
C4    Cl10   1.96114   1_545     S
Cl10  C4     1.96114   1_565     S
C4    Cl11   1.56546       .     S
Cl11  C4     1.56546       .     S
C5    C6     1.34238       .     S
C6    C5     1.34238       .     S
C5    H8     0.92893       .     S
H8    C5     0.92893       .     S
C6    H9     0.92955       .     S
H9    C6     0.92955       .     S
Cl10  Cl11   0.85550   1_565     S
Cl11  Cl10   0.85550   1_545     S
Cl12  Cl13   0.80546       .     S
Cl13  Cl12   0.80546       .     S
S14   O15    1.45725       .     S
O15   S14    1.45725       .     S
S14   O16    1.45329       .     S
O16   S14    1.45329       .     S
S14   O17    1.46365       .     S
O17   S14    1.46365       .     S
S14   C19    1.76035       .     S
C19   S14    1.76035       .     S
C18   C19    1.35917       .     S
C19   C18    1.35917       .     S
C18   C28    1.42932       .     S
C28   C18    1.42932       .     S
C18   H32    0.92953       .     S
H32   C18    0.92953       .     S
C19   C20    1.42484       .     S
C20   C19    1.42484       .     S
C20   C21    1.35761       .     S
C21   C20    1.35761       .     S
C20   H33    0.93020       .     S
H33   C20    0.93020       .     S
C21   C29    1.42193   1_554     S
C29   C21    1.42193   1_556     S
C21   H34    0.92961   1_554     S
H34   C21    0.92961   1_556     S
C22   C23    1.35917   1_545     S
C23   C22    1.35917   1_565     S
C22   C31    1.42772       .     S
C31   C22    1.42772       .     S
C22   H35    0.93105       .     S
H35   C22    0.93105       .     S
C23   C24    1.41884       .     S
C24   C23    1.41884       .     S
C23   H36    0.92996       .     S
H36   C23    0.92996       .     S
C24   C25    1.35694       .     S
C25   C24    1.35694       .     S
C24   H37    0.92865       .     S
H37   C24    0.92865       .     S
C25   C30    1.42845   1_565     S
C30   C25    1.42845   1_545     S
C25   H38    0.92987       .     S
H38   C25    0.92987       .     S
C26   C28    1.39317   1_556     S
C28   C26    1.39317   1_554     S
C26   C30    1.40008       .     S
C30   C26    1.40008       .     S
C26   H39    0.92933   1_556     S
H39   C26    0.92934   1_554     S
C27   C29    1.39722       .     S
C29   C27    1.39722       .     S
C27   C31    1.39481       .     S
C31   C27    1.39481       .     S
C27   H40    0.92950       .     S
H40   C27    0.92950       .     S
C28   C29    1.43259   1_554     S
C29   C28    1.43259   1_556     S
C30   C31    1.43442       .     S
C31   C30    1.43442       .     S
N41   C42    1.51508       .     S
C42   N41    1.51508       .     S
N41   H61    0.89026       .     S
H61   N41    0.89026       .     S
N41   H62    0.89012       .     S
H62   N41    0.89012       .     S
N41   H63    0.88942       .     S
H63   N41    0.88942       .     S
C42   C43    1.53829       .     S
C43   C42    1.53829       .     S
C42   C49    1.52834       .     S
C49   C42    1.52834       .     S
C42   C55    1.53943       .     S
C55   C42    1.53943       .     S
C43   C44    1.39798       .     S
C44   C43    1.39798       .     S
C43   C48    1.39206       .     S
C48   C43    1.39206       .     S
C44   C45    1.38604       .     S
C45   C44    1.38604       .     S
C44   H64    0.92919       .     S
H64   C44    0.92919       .     S
C45   C46    1.38552       .     S
C46   C45    1.38552       .     S
C45   H65    0.92900       .     S
H65   C45    0.92900       .     S
C46   C47    1.38078       .     S
C47   C46    1.38078       .     S
C46   H66    0.92991       .     S
H66   C46    0.92991       .     S
C47   C48    1.38663       .     S
C48   C47    1.38663       .     S
C47   H67    0.92969       .     S
H67   C47    0.92969       .     S
C48   H68    0.92881       .     S
H68   C48    0.92881       .     S
C49   C50    1.39477       .     S
C50   C49    1.39477       .     S
C49   C54    1.39118       .     S
C54   C49    1.39118       .     S
C50   C51    1.38958       .     S
C51   C50    1.38958       .     S
C50   H69    0.93021       .     S
H69   C50    0.93021       .     S
C51   C52    1.38571       .     S
C52   C51    1.38571       .     S
C51   H70    0.92869       .     S
H70   C51    0.92869       .     S
C52   C53    1.38254       .     S
C53   C52    1.38254       .     S
C52   H71    0.92852       .     S
H71   C52    0.92852       .     S
C53   C54    1.39285       .     S
C54   C53    1.39285       .     S
C53   H72    0.92960       .     S
H72   C53    0.92960       .     S
C54   H73    0.92850       .     S
H73   C54    0.92850       .     S
C55   C56    1.39355       .     S
C56   C55    1.39355       .     S
C55   C60    1.38951       .     S
C60   C55    1.38951       .     S
C56   C57    1.38578       .     S
C57   C56    1.38578       .     S
C56   H74    0.93029       .     S
H74   C56    0.93029       .     S
C57   C58    1.37459       .     S
C58   C57    1.37459       .     S
C57   H75    0.93105       .     S
H75   C57    0.93105       .     S
C58   C59    1.38203       .     S
C59   C58    1.38203       .     S
C58   H76    0.93053       .     S
H76   C58    0.93053       .     S
C59   C60    1.39557       .     S
C60   C59    1.39557       .     S
C59   H77    0.93058   1_545     S
H77   C59    0.93058   1_565     S
C60   H78    0.92875       .     S
H78   C60    0.92875       .     S
O16   H62    2.16310       .     S
H62   O16    2.16310       .     S
C2    Cl0    1.71113   1_545     S
Cl0   C2     1.71113   1_565     S
C2    C1     1.37514       .     S
C1    C2     1.37514       .     S
C6    C1     1.37116       .     S
C1    C6     1.37116       .     S
Cl12  C1     1.54672       .     S
C1    Cl12   1.54672       .     S
Cl13  C1     1.90621       .     S
C1    Cl13   1.90621       .     S
C3    C2     1.39717   1_565     S
C2    C3     1.39717   1_545     S
C4    C3     1.37382   1_545     S
C3    C4     1.37382   1_565     S
H7    C3     0.93115       .     S
C3    H7     0.93115       .     S
C5    C4     1.36088       .     S
C4    C5     1.36088       .     S
Cl10  C4     1.96114   1_565     S
C4    Cl10   1.96114   1_545     S
Cl11  C4     1.56546       .     S
C4    Cl11   1.56546       .     S
C6    C5     1.34238       .     S
C5    C6     1.34238       .     S
H8    C5     0.92893       .     S
C5    H8     0.92893       .     S
H9    C6     0.92955       .     S
C6    H9     0.92955       .     S
Cl11  Cl10   0.85550   1_545     S
Cl10  Cl11   0.85550   1_565     S
Cl13  Cl12   0.80546       .     S
Cl12  Cl13   0.80546       .     S
O15   S14    1.45725       .     S
S14   O15    1.45725       .     S
O16   S14    1.45329       .     S
S14   O16    1.45329       .     S
O17   S14    1.46365       .     S
S14   O17    1.46365       .     S
C19   S14    1.76035       .     S
S14   C19    1.76035       .     S
C19   C18    1.35917       .     S
C18   C19    1.35917       .     S
C28   C18    1.42932       .     S
C18   C28    1.42932       .     S
H32   C18    0.92953       .     S
C18   H32    0.92953       .     S
C20   C19    1.42484       .     S
C19   C20    1.42484       .     S
C21   C20    1.35761       .     S
C20   C21    1.35761       .     S
H33   C20    0.93020       .     S
C20   H33    0.93020       .     S
C29   C21    1.42193   1_556     S
C21   C29    1.42193   1_554     S
H34   C21    0.92961   1_556     S
C21   H34    0.92961   1_554     S
C23   C22    1.35917   1_565     S
C22   C23    1.35917   1_545     S
C31   C22    1.42772       .     S
C22   C31    1.42772       .     S
H35   C22    0.93105       .     S
C22   H35    0.93105       .     S
C24   C23    1.41884       .     S
C23   C24    1.41884       .     S
H36   C23    0.92996       .     S
C23   H36    0.92996       .     S
C25   C24    1.35694       .     S
C24   C25    1.35694       .     S
H37   C24    0.92865       .     S
C24   H37    0.92865       .     S
C30   C25    1.42845   1_545     S
C25   C30    1.42845   1_565     S
H38   C25    0.92987       .     S
C25   H38    0.92987       .     S
C28   C26    1.39317   1_554     S
C26   C28    1.39317   1_556     S
C30   C26    1.40008       .     S
C26   C30    1.40008       .     S
H39   C26    0.92934   1_554     S
C26   H39    0.92933   1_556     S
C29   C27    1.39722       .     S
C27   C29    1.39722       .     S
C31   C27    1.39481       .     S
C27   C31    1.39481       .     S
H40   C27    0.92950       .     S
C27   H40    0.92950       .     S
C29   C28    1.43259   1_556     S
C28   C29    1.43259   1_554     S
C31   C30    1.43442       .     S
C30   C31    1.43442       .     S
C42   N41    1.51508       .     S
N41   C42    1.51508       .     S
H61   N41    0.89026       .     S
N41   H61    0.89026       .     S
H62   N41    0.89012       .     S
N41   H62    0.89012       .     S
H63   N41    0.88942       .     S
N41   H63    0.88942       .     S
C43   C42    1.53829       .     S
C42   C43    1.53829       .     S
C49   C42    1.52834       .     S
C42   C49    1.52834       .     S
C55   C42    1.53943       .     S
C42   C55    1.53943       .     S
C44   C43    1.39798       .     S
C43   C44    1.39798       .     S
C48   C43    1.39206       .     S
C43   C48    1.39206       .     S
C45   C44    1.38604       .     S
C44   C45    1.38604       .     S
H64   C44    0.92919       .     S
C44   H64    0.92919       .     S
C46   C45    1.38552       .     S
C45   C46    1.38552       .     S
H65   C45    0.92900       .     S
C45   H65    0.92900       .     S
C47   C46    1.38078       .     S
C46   C47    1.38078       .     S
H66   C46    0.92991       .     S
C46   H66    0.92991       .     S
C48   C47    1.38663       .     S
C47   C48    1.38663       .     S
H67   C47    0.92969       .     S
C47   H67    0.92969       .     S
H68   C48    0.92881       .     S
C48   H68    0.92881       .     S
C50   C49    1.39477       .     S
C49   C50    1.39477       .     S
C54   C49    1.39118       .     S
C49   C54    1.39118       .     S
C51   C50    1.38958       .     S
C50   C51    1.38958       .     S
H69   C50    0.93021       .     S
C50   H69    0.93021       .     S
C52   C51    1.38571       .     S
C51   C52    1.38571       .     S
H70   C51    0.92869       .     S
C51   H70    0.92869       .     S
C53   C52    1.38254       .     S
C52   C53    1.38254       .     S
H71   C52    0.92852       .     S
C52   H71    0.92852       .     S
C54   C53    1.39285       .     S
C53   C54    1.39285       .     S
H72   C53    0.92960       .     S
C53   H72    0.92960       .     S
H73   C54    0.92850       .     S
C54   H73    0.92850       .     S
C56   C55    1.39355       .     S
C55   C56    1.39355       .     S
C60   C55    1.38951       .     S
C55   C60    1.38951       .     S
C57   C56    1.38578       .     S
C56   C57    1.38578       .     S
H74   C56    0.93029       .     S
C56   H74    0.93029       .     S
C58   C57    1.37459       .     S
C57   C58    1.37459       .     S
H75   C57    0.93105       .     S
C57   H75    0.93105       .     S
C59   C58    1.38203       .     S
C58   C59    1.38203       .     S
H76   C58    0.93053       .     S
C58   H76    0.93053       .     S
C60   C59    1.39557       .     S
C59   C60    1.39557       .     S
H77   C59    0.93058   1_565     S
C59   H77    0.93058   1_545     S
H78   C60    0.92875       .     S
C60   H78    0.92875       .     S
