data_I
_chemical_name_common  '/data/user2/wty/HOF/MOFDiff/mofdiff/data/test/7_907057_sbds_tpma_g'
_cell_length_a 19.72180
_cell_length_b 19.72180
_cell_length_c 27.02740
_cell_angle_alpha 90.00000
_cell_angle_beta  90.00000
_cell_angle_gamma 90.00000
_space_group_name_H-M_alt      'P 1'


loop_
_space_group_symop_operation_xyz
  'x, y, z' 

loop_
_atom_site_label
_atom_site_fract_x
_atom_site_fract_y
_atom_site_fract_z
_atom_site_type_symbol
N0     0.65945   0.8475  0.06235     N
C1      0.6202   0.8922  0.09735     C
C2      0.6062   0.9585  0.07003     C
C3      0.6586   0.9896   0.0426     C
C4      0.6473   0.0494   0.0181     C
C5      0.5845   0.0815   0.0198     C
C6      0.5335   0.0524   0.0473     C
C7      0.5441   0.9908   0.0719     C
C8      0.6654   0.9036  0.14332     C
C9       0.669   0.9678   0.1657     C
C10     0.7071   0.9753   0.2086     C
C11     0.7442   0.9206   0.2281     C
C12     0.7408   0.8597   0.2055     C
C13     0.7023   0.8502  0.16345     C
C14     0.5547   0.8538    0.111     C
C15     0.5283   0.8565   0.1584     C
C16     0.4692   0.8231   0.1699     C
C17     0.4341   0.7862   0.1353     C
C18       0.46   0.7846   0.0875     C
C19     0.5204   0.8167   0.0753     C
H20     0.6411   0.8504   0.0315     H
H21     0.6575   0.8038    0.073     H
H22     0.7035   0.8613   0.0614     H
H23      0.702   0.9689   0.0412     H
H24     0.6831   0.0692   0.9995     H
H25     0.5769   0.1227   0.0024     H
H26     0.4907   0.0743   0.0497     H
H27      0.508   0.9709   0.0901     H
H28     0.6458   0.0054   0.1518     H
H29     0.7081   0.0179    0.225     H
H30     0.7713   0.9265   0.2569     H
H31     0.7654   0.8226   0.2188     H
H32      0.701   0.8069   0.1481     H
H33     0.5514   0.8816   0.1833     H
H34     0.4521   0.8257   0.2028     H
H35     0.3937   0.7627   0.1437     H
H36     0.4357   0.7609   0.0625     H
H37     0.5382   0.8133   0.0427     H
N38     0.3474  0.15945  0.43739     N
C39     0.3921     0.12  0.40258     C
C40     0.4036   0.1655  0.35665     C
C41     0.3502    0.202   0.3362     C
C42     0.3592   0.2411   0.2947     C
C43     0.4212   0.2439   0.2725     C
C44     0.4753   0.2079    0.292     C
C45     0.4666   0.1694   0.3338     C
C46     0.4583   0.1069  0.43029     C
C47     0.4897   0.1587   0.4565     C
C48     0.5496   0.1474   0.4823     C
C49     0.5814   0.0843   0.4795     C
C50     0.5517    0.034   0.4536     C
C51      0.491   0.0437   0.4287     C
C52     0.3548    0.055  0.38925     C
C53     0.3169   0.0194   0.4251     C
C54     0.2832   0.9595   0.4124     C
C55     0.2849   0.9343   0.3658     C
C56     0.3227   0.9692   0.3303     C
C57     0.3571   0.0289   0.3417     C
H58     0.3492   0.1404   0.4681     H
H59     0.3039   0.1587   0.4261     H
H60     0.3621   0.2031    0.439     H
H61     0.3067   0.1999   0.3513     H
H62     0.3223   0.2662   0.2814     H
H63     0.4273   0.2705   0.2435     H
H64     0.5184     0.21   0.2765     H
H65      0.504   0.1453   0.3472     H
H66     0.4699   0.2026   0.4569     H
H67     0.5688   0.1826   0.5018     H
H68     0.6235   0.0769   0.4957     H
H69     0.5729   0.9908   0.4523     H
H70     0.4715   0.0075   0.4105     H
H71     0.3142   0.0363    0.458     H
H72     0.2584   0.9359   0.4372     H
H73     0.2612   0.8939   0.3575     H
H74     0.3249   0.9519   0.2975     H
H75     0.3821   0.0518   0.3168     H
C76     0.5321   0.4876   0.2348     C
C77     0.4969   0.5187   0.2358     C
C78     0.4817    0.504   0.2638     C
C79     0.5131   0.4685   0.2645     C
H80     0.5569   0.4465   0.2379     H
H81      0.459   0.5462   0.2602     H
H82      0.554   0.4436   0.2611     H
H83     0.4548   0.5416   0.2395     H
S84    0.65199  0.65253  0.07065     S
O85     0.6003  0.66471  0.03345     O
O86    0.67622  0.71482  0.09293     O
O87    0.70669  0.61022  0.05262     O
C88     0.6128   0.6075  0.11847     C
C89     0.5627    0.638   0.1457     C
C90     0.5322   0.6026   0.1828     C
C91      0.547   0.5396   0.1964     C
C92     0.5975   0.5096   0.1696     C
C93     0.6316    0.542   0.1301     C
H94     0.5493   0.6833   0.1387     H
H95     0.4972    0.625   0.2006     H
H96     0.6103   0.4646   0.1779     H
H97     0.6663   0.5194   0.1122     H
S98    0.34737  0.34807  0.42936     S
O99    0.33524  0.39994  0.46662     O
O100   0.28522  0.32357  0.40687     O
O101   0.38977   0.2933  0.44767     O
C102      0.46   0.4532    0.304     C
C103    0.4908   0.4022   0.3303     C
C104    0.4585   0.3674   0.3695     C
C105    0.3923   0.3877  0.38153     C
C106    0.3631   0.4377   0.3554     C
C107    0.3966   0.4695    0.318     C
H108    0.5359   0.3897   0.3217     H
H109    0.4807   0.3319   0.3869     H
H110    0.3181   0.4512   0.3632     H
H111    0.3741   0.5051   0.3009     H
loop_
_geom_bond_atom_site_label_1
_geom_bond_atom_site_label_2
_geom_bond_distance
_geom_bond_site_symmetry_2
_ccdc_geom_bond_type
H21   O86    1.87241       .     S
O86   H21    1.87241       .     S
H60   O101   1.87542       .     S
O101  H60    1.87542       .     S
N0    C1     1.50705       .     S
C1    N0     1.50705       .     S
N0    H20    0.91074       .     S
H20   N0     0.91074       .     S
N0    H21    0.90945       .     S
H21   N0     0.90945       .     S
N0    H22    0.91074       .     S
H22   N0     0.91074       .     S
C1    C2     1.52681       .     S
C2    C1     1.52681       .     S
C1    C8     1.54560       .     S
C8    C1     1.54560       .     S
C1    C14    1.54218       .     S
C14   C1     1.54218       .     S
C2    C3     1.41201       .     S
C3    C2     1.41201       .     S
C2    C7     1.38141       .     S
C7    C2     1.38141       .     S
C3    C4     1.37078   1_565     S
C4    C3     1.37078   1_545     S
C3    H23    0.94905       .     S
H23   C3     0.94905       .     S
C4    C5     1.39171       .     S
C5    C4     1.39171       .     S
C4    H24    0.95063   1_554     S
H24   C4     0.95063   1_556     S
C5    C6     1.37603       .     S
C6    C5     1.37603       .     S
C5    H25    0.95071       .     S
H25   C5     0.95071       .     S
C6    C7     1.40059   1_545     S
C7    C6     1.40059   1_565     S
C6    H26    0.95039       .     S
H26   C6     0.95039       .     S
C7    H27    0.95020       .     S
H27   C7     0.95020       .     S
C8    C9     1.40500       .     S
C9    C8     1.40500       .     S
C8    C13    1.39094       .     S
C13   C8     1.39094       .     S
C9    C10    1.38955       .     S
C10   C9     1.38955       .     S
C9    H28    0.94888   1_565     S
H28   C9     0.94888   1_545     S
C10   C11    1.40602       .     S
C11   C10    1.40602       .     S
C10   H29    0.95011   1_565     S
H29   C10    0.95011   1_545     S
C11   C12    1.34912       .     S
C12   C11    1.34912       .     S
C11   H30    0.95136       .     S
H30   C11    0.95136       .     S
C12   C13    1.37959       .     S
C13   C12    1.37959       .     S
C12   H31    0.94865       .     S
H31   C12    0.94865       .     S
C13   H32    0.94974       .     S
H32   C13    0.94974       .     S
C14   C15    1.38388       .     S
C15   C14    1.38388       .     S
C14   C19    1.38706       .     S
C19   C14    1.38706       .     S
C15   C16    1.37442       .     S
C16   C15    1.37442       .     S
C15   H33    0.95158       .     S
H33   C15    0.95158       .     S
C16   C17    1.37233       .     S
C17   C16    1.37233       .     S
C16   H34    0.95239       .     S
H34   C16    0.95239       .     S
C17   C18    1.38958       .     S
C18   C17    1.38958       .     S
C17   H35    0.94930       .     S
H35   C17    0.94930       .     S
C18   C19    1.38869       .     S
C19   C18    1.38869       .     S
C18   H36    0.95115       .     S
H36   C18    0.95115       .     S
C19   H37    0.95082       .     S
H37   C19    0.95082       .     S
N38   C39    1.50586       .     S
C39   N38    1.50586       .     S
N38   H58    0.91177       .     S
H58   N38    0.91177       .     S
N38   H59    0.91067       .     S
H59   N38    0.91067       .     S
N38   H60    0.90940       .     S
H60   N38    0.90940       .     S
C39   C40    1.54844       .     S
C40   C39    1.54844       .     S
C39   C46    1.52715       .     S
C46   C39    1.52715       .     S
C39   C52    1.52127       .     S
C52   C39    1.52127       .     S
C40   C41    1.39024       .     S
C41   C40    1.39024       .     S
C40   C45    1.38962       .     S
C45   C40    1.38962       .     S
C41   C42    1.37266       .     S
C42   C41    1.37266       .     S
C41   H61    0.95093       .     S
H61   C41    0.95093       .     S
C42   C43    1.36315       .     S
C43   C42    1.36315       .     S
C42   H62    0.95071       .     S
H62   C42    0.95071       .     S
C43   C44    1.38572       .     S
C44   C43    1.38572       .     S
C43   H63    0.95080       .     S
H63   C43    0.95080       .     S
C44   C45    1.37196       .     S
C45   C44    1.37196       .     S
C44   H64    0.94854       .     S
H64   C44    0.94854       .     S
C45   H65    0.94927       .     S
H65   C45    0.94927       .     S
C46   C47    1.38886       .     S
C47   C46    1.38886       .     S
C46   C51    1.40403       .     S
C51   C46    1.40403       .     S
C47   C48    1.38977       .     S
C48   C47    1.38977       .     S
C47   H66    0.94984       .     S
H66   C47    0.94984       .     S
C48   C49    1.39560       .     S
C49   C48    1.39560       .     S
C48   H67    0.95030       .     S
H67   C48    0.95030       .     S
C49   C50    1.34803       .     S
C50   C49    1.34803       .     S
C49   H68    0.94994       .     S
H68   C49    0.94994       .     S
C50   C51    1.38657       .     S
C51   C50    1.38657       .     S
C50   H69    0.94969   1_545     S
H69   C50    0.94969   1_565     S
C51   H70    0.94845       .     S
H70   C51    0.94845       .     S
C52   C53    1.41084       .     S
C53   C52    1.41084       .     S
C52   C57    1.38515       .     S
C57   C52    1.38515       .     S
C53   C54    1.39825   1_545     S
C54   C53    1.39825   1_565     S
C53   H71    0.95111       .     S
H71   C53    0.95111       .     S
C54   C55    1.35440       .     S
C55   C54    1.35440       .     S
C54   H72    0.95138       .     S
H72   C54    0.95138       .     S
C55   C56    1.39645       .     S
C56   C55    1.39645       .     S
C55   H73    0.95059       .     S
H73   C55    0.95059       .     S
C56   C57    1.39336   1_565     S
C57   C56    1.39336   1_545     S
C56   H74    0.95088       .     S
H74   C56    0.95088       .     S
C57   H75    0.94867       .     S
H75   C57    0.94867       .     S
C76   C77    0.92674       .     S
C77   C76    0.92674       .     S
C76   C78    1.30650       .     S
C78   C76    1.30650       .     S
C76   C79    0.96263       .     S
C79   C76    0.96263       .     S
C76   H80    0.95040       .     S
H80   C76    0.95040       .     S
C76   H82    1.20200       .     S
H82   C76    1.20200       .     S
C76   C91    1.48836       .     S
C91   C76    1.48836       .     S
C77   C78    0.86406       .     S
C78   C77    0.86406       .     S
C77   C79    1.29766       .     S
C79   C77    1.29766       .     S
C77   H81    1.13478       .     S
H81   C77    1.13478       .     S
C77   H83    0.95045       .     S
H83   C77    0.95045       .     S
C77   C91    1.51001       .     S
C91   C77    1.51001       .     S
C78   C79    0.93489       .     S
C79   C78    0.93489       .     S
C78   H81    0.95002       .     S
H81   C78    0.95002       .     S
C78   H83    1.12369       .     S
H83   C78    1.12369       .     S
C78   C102   1.53863       .     S
C102  C78    1.53863       .     S
C79   H80    1.20469       .     S
H80   C79    1.20469       .     S
C79   H82    0.94881       .     S
H82   C79    0.94881       .     S
C79   C102   1.52560       .     S
C102  C79    1.52560       .     S
H80   H82    0.63223       .     S
H82   H80    0.63223       .     S
H81   H83    0.57280       .     S
H83   H81    0.57280       .     S
S84   O85    1.45182       .     S
O85   S84    1.45182       .     S
S84   O86    1.44917       .     S
O86   S84    1.44917       .     S
S84   O87    1.44828       .     S
O87   S84    1.44828       .     S
S84   C88    1.74828       .     S
C88   S84    1.74828       .     S
C88   C89    1.37103       .     S
C89   C88    1.37103       .     S
C88   C93    1.38020       .     S
C93   C88    1.38020       .     S
C89   C90    1.36187       .     S
C90   C89    1.36187       .     S
C89   H94    0.95068       .     S
H94   C89    0.95068       .     S
C90   C91    1.32817       .     S
C91   C90    1.32817       .     S
C90   H95    0.95030       .     S
H95   C90    0.95030       .     S
C91   C92    1.36625       .     S
C92   C91    1.36625       .     S
C92   C93    1.41432       .     S
C93   C92    1.41432       .     S
C92   H96    0.94956       .     S
H96   C92    0.94956       .     S
C93   H97    0.94923       .     S
H97   C93    0.94923       .     S
S98   O99    1.45528       .     S
O99   S98    1.45528       .     S
S98   O100   1.45097       .     S
O100  S98    1.45097       .     S
S98   O101   1.45289       .     S
O101  S98    1.45289       .     S
S98   C105   1.75133       .     S
C105  S98    1.75133       .     S
C102  C103   1.37328       .     S
C103  C102   1.37328       .     S
C102  C107   1.34533       .     S
C107  C102   1.34533       .     S
C103  C104   1.41397       .     S
C104  C103   1.41397       .     S
C103  H108   0.95180       .     S
H108  C103   0.95180       .     S
C104  C105   1.40376       .     S
C105  C104   1.40376       .     S
C104  H109   0.95028       .     S
H109  C104   0.95028       .     S
C105  C106   1.34267       .     S
C106  C105   1.34267       .     S
C106  C107   1.36073       .     S
C107  C106   1.36073       .     S
C106  H110   0.95024       .     S
H110  C106   0.95024       .     S
C107  H111   0.95050       .     S
H111  C107   0.95050       .     S
O86   H21    1.87241       .     S
H21   O86    1.87241       .     S
O101  H60    1.87542       .     S
H60   O101   1.87542       .     S
C1    N0     1.50705       .     S
N0    C1     1.50705       .     S
H20   N0     0.91074       .     S
N0    H20    0.91074       .     S
H21   N0     0.90945       .     S
N0    H21    0.90945       .     S
H22   N0     0.91074       .     S
N0    H22    0.91074       .     S
C2    C1     1.52681       .     S
C1    C2     1.52681       .     S
C8    C1     1.54560       .     S
C1    C8     1.54560       .     S
C14   C1     1.54218       .     S
C1    C14    1.54218       .     S
C3    C2     1.41201       .     S
C2    C3     1.41201       .     S
C7    C2     1.38141       .     S
C2    C7     1.38141       .     S
C4    C3     1.37078   1_545     S
C3    C4     1.37078   1_565     S
H23   C3     0.94905       .     S
C3    H23    0.94905       .     S
C5    C4     1.39171       .     S
C4    C5     1.39171       .     S
H24   C4     0.95063   1_556     S
C4    H24    0.95063   1_554     S
C6    C5     1.37603       .     S
C5    C6     1.37603       .     S
H25   C5     0.95071       .     S
C5    H25    0.95071       .     S
C7    C6     1.40059   1_565     S
C6    C7     1.40059   1_545     S
H26   C6     0.95039       .     S
C6    H26    0.95039       .     S
H27   C7     0.95020       .     S
C7    H27    0.95020       .     S
C9    C8     1.40500       .     S
C8    C9     1.40500       .     S
C13   C8     1.39094       .     S
C8    C13    1.39094       .     S
C10   C9     1.38955       .     S
C9    C10    1.38955       .     S
H28   C9     0.94888   1_545     S
C9    H28    0.94888   1_565     S
C11   C10    1.40602       .     S
C10   C11    1.40602       .     S
H29   C10    0.95011   1_545     S
C10   H29    0.95011   1_565     S
C12   C11    1.34912       .     S
C11   C12    1.34912       .     S
H30   C11    0.95136       .     S
C11   H30    0.95136       .     S
C13   C12    1.37959       .     S
C12   C13    1.37959       .     S
H31   C12    0.94865       .     S
C12   H31    0.94865       .     S
H32   C13    0.94974       .     S
C13   H32    0.94974       .     S
C15   C14    1.38388       .     S
C14   C15    1.38388       .     S
C19   C14    1.38706       .     S
C14   C19    1.38706       .     S
C16   C15    1.37442       .     S
C15   C16    1.37442       .     S
H33   C15    0.95158       .     S
C15   H33    0.95158       .     S
C17   C16    1.37233       .     S
C16   C17    1.37233       .     S
H34   C16    0.95239       .     S
C16   H34    0.95239       .     S
C18   C17    1.38958       .     S
C17   C18    1.38958       .     S
H35   C17    0.94930       .     S
C17   H35    0.94930       .     S
C19   C18    1.38869       .     S
C18   C19    1.38869       .     S
H36   C18    0.95115       .     S
C18   H36    0.95115       .     S
H37   C19    0.95082       .     S
C19   H37    0.95082       .     S
C39   N38    1.50586       .     S
N38   C39    1.50586       .     S
H58   N38    0.91177       .     S
N38   H58    0.91177       .     S
H59   N38    0.91067       .     S
N38   H59    0.91067       .     S
H60   N38    0.90940       .     S
N38   H60    0.90940       .     S
C40   C39    1.54844       .     S
C39   C40    1.54844       .     S
C46   C39    1.52715       .     S
C39   C46    1.52715       .     S
C52   C39    1.52127       .     S
C39   C52    1.52127       .     S
C41   C40    1.39024       .     S
C40   C41    1.39024       .     S
C45   C40    1.38962       .     S
C40   C45    1.38962       .     S
C42   C41    1.37266       .     S
C41   C42    1.37266       .     S
H61   C41    0.95093       .     S
C41   H61    0.95093       .     S
C43   C42    1.36315       .     S
C42   C43    1.36315       .     S
H62   C42    0.95071       .     S
C42   H62    0.95071       .     S
C44   C43    1.38572       .     S
C43   C44    1.38572       .     S
H63   C43    0.95080       .     S
C43   H63    0.95080       .     S
C45   C44    1.37196       .     S
C44   C45    1.37196       .     S
H64   C44    0.94854       .     S
C44   H64    0.94854       .     S
H65   C45    0.94927       .     S
C45   H65    0.94927       .     S
C47   C46    1.38886       .     S
C46   C47    1.38886       .     S
C51   C46    1.40403       .     S
C46   C51    1.40403       .     S
C48   C47    1.38977       .     S
C47   C48    1.38977       .     S
H66   C47    0.94984       .     S
C47   H66    0.94984       .     S
C49   C48    1.39560       .     S
C48   C49    1.39560       .     S
H67   C48    0.95030       .     S
C48   H67    0.95030       .     S
C50   C49    1.34803       .     S
C49   C50    1.34803       .     S
H68   C49    0.94994       .     S
C49   H68    0.94994       .     S
C51   C50    1.38657       .     S
C50   C51    1.38657       .     S
H69   C50    0.94969   1_565     S
C50   H69    0.94969   1_545     S
H70   C51    0.94845       .     S
C51   H70    0.94845       .     S
C53   C52    1.41084       .     S
C52   C53    1.41084       .     S
C57   C52    1.38515       .     S
C52   C57    1.38515       .     S
C54   C53    1.39825   1_565     S
C53   C54    1.39825   1_545     S
H71   C53    0.95111       .     S
C53   H71    0.95111       .     S
C55   C54    1.35440       .     S
C54   C55    1.35440       .     S
H72   C54    0.95138       .     S
C54   H72    0.95138       .     S
C56   C55    1.39645       .     S
C55   C56    1.39645       .     S
H73   C55    0.95059       .     S
C55   H73    0.95059       .     S
C57   C56    1.39336   1_545     S
C56   C57    1.39336   1_565     S
H74   C56    0.95088       .     S
C56   H74    0.95088       .     S
H75   C57    0.94867       .     S
C57   H75    0.94867       .     S
C77   C76    0.92674       .     S
C76   C77    0.92674       .     S
C78   C76    1.30650       .     S
C76   C78    1.30650       .     S
C79   C76    0.96263       .     S
C76   C79    0.96263       .     S
H80   C76    0.95040       .     S
C76   H80    0.95040       .     S
H82   C76    1.20200       .     S
C76   H82    1.20200       .     S
C91   C76    1.48836       .     S
C76   C91    1.48836       .     S
C78   C77    0.86406       .     S
C77   C78    0.86406       .     S
C79   C77    1.29766       .     S
C77   C79    1.29766       .     S
H81   C77    1.13478       .     S
C77   H81    1.13478       .     S
H83   C77    0.95045       .     S
C77   H83    0.95045       .     S
C91   C77    1.51001       .     S
C77   C91    1.51001       .     S
C79   C78    0.93489       .     S
C78   C79    0.93489       .     S
H81   C78    0.95002       .     S
C78   H81    0.95002       .     S
H83   C78    1.12369       .     S
C78   H83    1.12369       .     S
C102  C78    1.53863       .     S
C78   C102   1.53863       .     S
H80   C79    1.20469       .     S
C79   H80    1.20469       .     S
H82   C79    0.94881       .     S
C79   H82    0.94881       .     S
C102  C79    1.52560       .     S
C79   C102   1.52560       .     S
H82   H80    0.63223       .     S
H80   H82    0.63223       .     S
H83   H81    0.57280       .     S
H81   H83    0.57280       .     S
O85   S84    1.45182       .     S
S84   O85    1.45182       .     S
O86   S84    1.44917       .     S
S84   O86    1.44917       .     S
O87   S84    1.44828       .     S
S84   O87    1.44828       .     S
C88   S84    1.74828       .     S
S84   C88    1.74828       .     S
C89   C88    1.37103       .     S
C88   C89    1.37103       .     S
C93   C88    1.38020       .     S
C88   C93    1.38020       .     S
C90   C89    1.36187       .     S
C89   C90    1.36187       .     S
H94   C89    0.95068       .     S
C89   H94    0.95068       .     S
C91   C90    1.32817       .     S
C90   C91    1.32817       .     S
H95   C90    0.95030       .     S
C90   H95    0.95030       .     S
C92   C91    1.36625       .     S
C91   C92    1.36625       .     S
C93   C92    1.41432       .     S
C92   C93    1.41432       .     S
H96   C92    0.94956       .     S
C92   H96    0.94956       .     S
H97   C93    0.94923       .     S
C93   H97    0.94923       .     S
O99   S98    1.45528       .     S
S98   O99    1.45528       .     S
O100  S98    1.45097       .     S
S98   O100   1.45097       .     S
O101  S98    1.45289       .     S
S98   O101   1.45289       .     S
C105  S98    1.75133       .     S
S98   C105   1.75133       .     S
C103  C102   1.37328       .     S
C102  C103   1.37328       .     S
C107  C102   1.34533       .     S
C102  C107   1.34533       .     S
C104  C103   1.41397       .     S
C103  C104   1.41397       .     S
H108  C103   0.95180       .     S
C103  H108   0.95180       .     S
C105  C104   1.40376       .     S
C104  C105   1.40376       .     S
H109  C104   0.95028       .     S
C104  H109   0.95028       .     S
C106  C105   1.34267       .     S
C105  C106   1.34267       .     S
C107  C106   1.36073       .     S
C106  C107   1.36073       .     S
H110  C106   0.95024       .     S
C106  H110   0.95024       .     S
H111  C107   0.95050       .     S
C107  H111   0.95050       .     S
