data_I
_chemical_name_common  '/data/user2/wty/HOF/MOFDiff/mofdiff/data/test/8_988067_hof-8'
_cell_length_a 26.12800
_cell_length_b 15.34800
_cell_length_c 15.93520
_cell_angle_alpha 90.00000
_cell_angle_beta  126.41200
_cell_angle_gamma 90.00000
_space_group_name_H-M_alt      'P 1'


loop_
_space_group_symop_operation_xyz
  'x, y, z' 

loop_
_atom_site_label
_atom_site_fract_x
_atom_site_fract_y
_atom_site_fract_z
_atom_site_type_symbol
C0     0.73049  0.93154  0.65559     C
C1     0.78305  0.92112   0.7584     C
H2      0.7969   0.8653   0.7854     H
C3     0.81522  0.99246  0.82141     C
C4     0.79283  0.07601  0.78135     C
H5      0.8128   0.1243   0.8242     H
C6     0.74135   0.0874  0.67862     C
C7     0.70936  0.01515   0.6164     C
H8      0.6736   0.0227   0.5481     H
C9     0.70054  0.85141  0.58934     C
C10    0.66428   0.7949  0.41632     C
C11    0.66203   0.8153  0.32919     C
H12     0.6785   0.8678   0.3258     H
C13    0.63523  0.75708  0.24854     C
H14      0.633   0.7728   0.1901     H
C15    0.61588  0.66111  0.33269     C
H16     0.6004   0.6073    0.335     H
C17    0.64068  0.71488   0.4174     C
H18     0.6415   0.6977   0.4742     H
C19    0.87566  0.98428  0.92892     C
C20    0.97383  0.89492   0.0276     C
C21    0.00654  0.83003  0.01738     C
H22     0.9894   0.8048   0.9527     H
C23    0.06446  0.80326  0.10359     C
H24     0.0855   0.7597   0.0946     H
C25    0.06039  0.89748  0.20648     C
H26     0.0786   0.9213   0.2722     H
C27    0.00259   0.9298  0.12573     C
H28     0.9831   0.9744   0.1368     H
C29    0.72178  0.17498  0.62805     C
C30    0.77005  0.31162  0.62111     C
C31    0.82578  0.35872  0.67637     C
H32     0.8627   0.3347   0.7347     H
C33    0.82622  0.44139  0.64444     C
H34     0.8644    0.472   0.6829     H
C35    0.72302  0.43427  0.50991     C
H36     0.6871   0.4599   0.4515     H
C37    0.71715  0.35102  0.53521     C
H38     0.6784   0.3219   0.4953     H
N39    0.68994  0.85782  0.49516     N
H40     0.7003   0.9066   0.4824     H
N41    0.61212  0.67949  0.24775     N
N42     0.9147  0.92004  0.93825     N
H43     0.9013   0.8914   0.8823     H
N44    0.09264  0.83502  0.19894     N
N45     0.7715  0.22694  0.65556     N
H46     0.8087   0.2052   0.6998     H
N47    0.77609  0.48066  0.56256     N
O48    0.69017  0.78663  0.62086     O
O49    0.88902  0.03187  0.00043     O
O50    0.66613  0.19633   0.5652     O
loop_
_geom_bond_atom_site_label_1
_geom_bond_atom_site_label_2
_geom_bond_distance
_geom_bond_site_symmetry_2
_ccdc_geom_bond_type
C0    C1     1.38728       .     S
C1    C0     1.38728       .     S
C0    C7     1.39004   1_565     S
C7    C0     1.39004   1_545     S
C0    C9     1.50287       .     S
C9    C0     1.50287       .     S
C1    H2     0.93016       .     S
H2    C1     0.93016       .     S
C1    C3     1.38261       .     S
C3    C1     1.38261       .     S
C3    C4     1.39669   1_565     S
C4    C3     1.39669   1_545     S
C3    C19    1.49425       .     S
C19   C3     1.49425       .     S
C4    H5     0.92997       .     S
H5    C4     0.92997       .     S
C4    C6     1.38042       .     S
C6    C4     1.38042       .     S
C6    C7     1.38834       .     S
C7    C6     1.38834       .     S
C6    C29    1.49281       .     S
C29   C6     1.49281       .     S
C7    H8     0.92937       .     S
H8    C7     0.92937       .     S
C9    N39    1.35840       .     S
N39   C9     1.35840       .     S
C9    O48    1.21482       .     S
O48   C9     1.21482       .     S
C10   C11    1.39008       .     S
C11   C10    1.39008       .     S
C10   C17    1.37893       .     S
C17   C10    1.37893       .     S
C10   N39    1.40017       .     S
N39   C10    1.40017       .     S
C11   H12    0.93003       .     S
H12   C11    0.93003       .     S
C11   C13    1.36824       .     S
C13   C11    1.36824       .     S
C13   H14    0.92974       .     S
H14   C13    0.92974       .     S
C13   N41    1.33186       .     S
N41   C13    1.33186       .     S
C15   H16    0.92989       .     S
H16   C15    0.92989       .     S
C15   C17    1.37283       .     S
C17   C15    1.37283       .     S
C15   N41    1.32794       .     S
N41   C15    1.32794       .     S
C17   H18    0.93070       .     S
H18   C17    0.93070       .     S
C19   N42    1.36185       .     S
N42   C19    1.36185       .     S
C19   O49    1.21723   1_566     S
O49   C19    1.21723   1_544     S
C20   C21    1.38350   1_655     S
C21   C20    1.38350   1_455     S
C20   C27    1.37895   1_655     S
C27   C20    1.37895   1_455     S
C20   N42    1.39689   1_554     S
N42   C20    1.39689   1_556     S
C21   H22    0.92997   1_454     S
H22   C21    0.92997   1_656     S
C21   C23    1.37045       .     S
C23   C21    1.37045       .     S
C23   H24    0.92908       .     S
H24   C23    0.92908       .     S
C23   N44    1.32674       .     S
N44   C23    1.32674       .     S
C25   H26    0.93019       .     S
H26   C25    0.93019       .     S
C25   C27    1.36950       .     S
C27   C25    1.36950       .     S
C25   N44    1.32802       .     S
N44   C25    1.32802       .     S
C27   H28    0.93040   1_455     S
H28   C27    0.93040   1_655     S
C29   N45    1.35635       .     S
N45   C29    1.35635       .     S
C29   O50    1.22303       .     S
O50   C29    1.22303       .     S
C30   C31    1.37697       .     S
C31   C30    1.37697       .     S
C30   C37    1.37974       .     S
C37   C30    1.37974       .     S
C30   N45    1.40259       .     S
N45   C30    1.40259       .     S
C31   H32    0.93057       .     S
H32   C31    0.93057       .     S
C31   C33    1.36962       .     S
C33   C31    1.36962       .     S
C33   H34    0.93040       .     S
H34   C33    0.93040       .     S
C33   N47    1.32378       .     S
N47   C33    1.32378       .     S
C35   H36    0.92997       .     S
H36   C35    0.92997       .     S
C35   C37    1.37551       .     S
C37   C35    1.37551       .     S
C35   N47    1.32379       .     S
N47   C35    1.32379       .     S
C37   H38    0.92998       .     S
H38   C37    0.92998       .     S
N39   H40    0.86051       .     S
H40   N39    0.86051       .     S
N42   H43    0.86030       .     S
H43   N42    0.86030       .     S
N45   H46    0.85998       .     S
H46   N45    0.85998       .     S
C1    C0     1.38728       .     S
C0    C1     1.38728       .     S
C7    C0     1.39004   1_545     S
C0    C7     1.39004   1_565     S
C9    C0     1.50287       .     S
C0    C9     1.50287       .     S
H2    C1     0.93016       .     S
C1    H2     0.93016       .     S
C3    C1     1.38261       .     S
C1    C3     1.38261       .     S
C4    C3     1.39669   1_545     S
C3    C4     1.39669   1_565     S
C19   C3     1.49425       .     S
C3    C19    1.49425       .     S
H5    C4     0.92997       .     S
C4    H5     0.92997       .     S
C6    C4     1.38042       .     S
C4    C6     1.38042       .     S
C7    C6     1.38834       .     S
C6    C7     1.38834       .     S
C29   C6     1.49281       .     S
C6    C29    1.49281       .     S
H8    C7     0.92937       .     S
C7    H8     0.92937       .     S
N39   C9     1.35840       .     S
C9    N39    1.35840       .     S
O48   C9     1.21482       .     S
C9    O48    1.21482       .     S
C11   C10    1.39008       .     S
C10   C11    1.39008       .     S
C17   C10    1.37893       .     S
C10   C17    1.37893       .     S
N39   C10    1.40017       .     S
C10   N39    1.40017       .     S
H12   C11    0.93003       .     S
C11   H12    0.93003       .     S
C13   C11    1.36824       .     S
C11   C13    1.36824       .     S
H14   C13    0.92974       .     S
C13   H14    0.92974       .     S
N41   C13    1.33186       .     S
C13   N41    1.33186       .     S
H16   C15    0.92989       .     S
C15   H16    0.92989       .     S
C17   C15    1.37283       .     S
C15   C17    1.37283       .     S
N41   C15    1.32794       .     S
C15   N41    1.32794       .     S
H18   C17    0.93070       .     S
C17   H18    0.93070       .     S
N42   C19    1.36185       .     S
C19   N42    1.36185       .     S
O49   C19    1.21723   1_544     S
C19   O49    1.21723   1_566     S
C21   C20    1.38350   1_455     S
C20   C21    1.38350   1_655     S
C27   C20    1.37895   1_455     S
C20   C27    1.37895   1_655     S
N42   C20    1.39689   1_556     S
C20   N42    1.39689   1_554     S
H22   C21    0.92997   1_656     S
C21   H22    0.92997   1_454     S
C23   C21    1.37045       .     S
C21   C23    1.37045       .     S
H24   C23    0.92908       .     S
C23   H24    0.92908       .     S
N44   C23    1.32674       .     S
C23   N44    1.32674       .     S
H26   C25    0.93019       .     S
C25   H26    0.93019       .     S
C27   C25    1.36950       .     S
C25   C27    1.36950       .     S
N44   C25    1.32802       .     S
C25   N44    1.32802       .     S
H28   C27    0.93040   1_655     S
C27   H28    0.93040   1_455     S
N45   C29    1.35635       .     S
C29   N45    1.35635       .     S
O50   C29    1.22303       .     S
C29   O50    1.22303       .     S
C31   C30    1.37697       .     S
C30   C31    1.37697       .     S
C37   C30    1.37974       .     S
C30   C37    1.37974       .     S
N45   C30    1.40259       .     S
C30   N45    1.40259       .     S
H32   C31    0.93057       .     S
C31   H32    0.93057       .     S
C33   C31    1.36962       .     S
C31   C33    1.36962       .     S
H34   C33    0.93040       .     S
C33   H34    0.93040       .     S
N47   C33    1.32378       .     S
C33   N47    1.32378       .     S
H36   C35    0.92997       .     S
C35   H36    0.92997       .     S
C37   C35    1.37551       .     S
C35   C37    1.37551       .     S
N47   C35    1.32379       .     S
C35   N47    1.32379       .     S
H38   C37    0.92998       .     S
C37   H38    0.92998       .     S
H40   N39    0.86051       .     S
N39   H40    0.86051       .     S
H43   N42    0.86030       .     S
N42   H43    0.86030       .     S
H46   N45    0.85998       .     S
N45   H46    0.85998       .     S
